data_image0
_chemical_formula_structural       Zn32H120C192N24O104
_chemical_formula_sum              "Zn32 H120 C192 N24 O104"
_cell_length_a       25.210914509023194
_cell_length_b       25.210943225018692
_cell_length_c       25.210917022010797
_cell_angle_alpha    90.00005725962538
_cell_angle_beta     89.99991071179612
_cell_angle_gamma    90.00012723696501

_space_group_name_H-M_alt    "P 1"
_space_group_IT_number       1

loop_
  _space_group_symop_operation_xyz
  'x, y, z'

loop_
  _atom_site_type_symbol
  _atom_site_label
  _atom_site_symmetry_multiplicity
  _atom_site_fract_x
  _atom_site_fract_y
  _atom_site_fract_z
  _atom_site_occupancy
  Zn  Zn1       1.0  0.15992285144005788  0.15992247711439225  0.15992154785566726  1.0000
  Zn  Zn2       1.0  0.3400781257612309  0.8400775664291728  0.6599218064318747  1.0000
  Zn  Zn3       1.0  0.840077887158074  0.6599220683891929  0.34007814165213546  1.0000
  Zn  Zn4       1.0  0.6599222338156849  0.3400772822200864  0.8400777846089369  1.0000
  Zn  Zn5       1.0  0.8400773009947285  0.8400770216343217  0.840076704131391  1.0000
  Zn  Zn6       1.0  0.6599228199804442  0.15992193232062135  0.3400768422081199  1.0000
  Zn  Zn7       1.0  0.15992147196897827  0.3400786203192752  0.6599224902574932  1.0000
  Zn  Zn8       1.0  0.34007871192475375  0.6599222165304965  0.15992245064530408  1.0000
  Zn  Zn9       1.0  0.16283513699553248  0.26237524975934423  0.2355705705359341  1.0000
  Zn  Zn10      1.0  0.3371661189803845  0.7376232827640621  0.7355707312497869  1.0000
  Zn  Zn11      1.0  0.83716463916889  0.7623763455864532  0.2644292213736463  1.0000
  Zn  Zn12      1.0  0.6628352030290473  0.23762372273687754  0.7644291540424106  1.0000
  Zn  Zn13      1.0  0.23557016952816662  0.1628352363620138  0.26237472511520815  1.0000
  Zn  Zn14      1.0  0.7355712916945906  0.33716508761145997  0.7376240927960537  1.0000
  Zn  Zn15      1.0  0.2644290614147238  0.8371657028627482  0.7623762886413488  1.0000
  Zn  Zn16      1.0  0.7644293855783957  0.662834557274543  0.23762377734396267  1.0000
  Zn  Zn17      1.0  0.2623761781342253  0.23556990083629606  0.1628349262234465  1.0000
  Zn  Zn18      1.0  0.7376231418470666  0.7355712449544924  0.33716602885568375  1.0000
  Zn  Zn19      1.0  0.7623765870112321  0.2644288960510011  0.8371662298309701  1.0000
  Zn  Zn20      1.0  0.23762400121942306  0.7644289556577705  0.6628344755606079  1.0000
  Zn  Zn21      1.0  0.8371654120917924  0.7376238523370516  0.7644284747577358  1.0000
  Zn  Zn22      1.0  0.6628348267596138  0.26237581933337134  0.26442950400425497  1.0000
  Zn  Zn23      1.0  0.162834323304871  0.2376243431213751  0.7355710138827333  1.0000
  Zn  Zn24      1.0  0.33716574271183214  0.7623761726668548  0.2355710812120293  1.0000
  Zn  Zn25      1.0  0.7644303795617162  0.8371650556930346  0.7376227335648123  1.0000
  Zn  Zn26      1.0  0.2644292573918107  0.662834014485533  0.2623761424582938  1.0000
  Zn  Zn27      1.0  0.7355706943669916  0.16283538249890475  0.23762354996105015  1.0000
  Zn  Zn28      1.0  0.23557037020155033  0.33716494147452636  0.7623760612576405  1.0000
  Zn  Zn29      1.0  0.7376243709524816  0.764429201260505  0.8371649123773464  1.0000
  Zn  Zn30      1.0  0.26237621727968014  0.2644294437541674  0.6628349997075061  1.0000
  Zn  Zn31      1.0  0.23762356542213328  0.7355709993520491  0.16283440207764238  1.0000
  Zn  Zn32      1.0  0.7623749612543805  0.23557093974316248  0.3371645697346963  1.0000
  H   H1        1.0  0.8567225595541925  0.11338276794877089  0.20197458874243773  1.0000
  H   H2        1.0  0.6432773799614536  0.8866172379669095  0.7019744072466592  1.0000
  H   H3        1.0  0.1432768857290938  0.6133831497903088  0.29802545090446836  1.0000
  H   H4        1.0  0.35672268631559934  0.3866162384452921  0.7980252303098538  1.0000
  H   H5        1.0  0.20197489282664796  0.8567222927396898  0.11338289770859687  1.0000
  H   H6        1.0  0.7019753522492066  0.6432774320572889  0.8866168689595494  1.0000
  H   H7        1.0  0.29802536358474896  0.14327770429927258  0.6133829220355267  1.0000
  H   H8        1.0  0.7980254895147069  0.35672275836328277  0.3866173851524621  1.0000
  H   H9        1.0  0.11338298836179209  0.2019751470478113  0.8567217248906402  1.0000
  H   H10       1.0  0.8866166678663346  0.7019746450160864  0.6432769348118298  1.0000
  H   H11       1.0  0.6133825698057008  0.298026095552025  0.14327768010836908  1.0000
  H   H12       1.0  0.3866168888754088  0.7980254898004586  0.35672294074031186  1.0000
  H   H13       1.0  0.14327759287993297  0.8866175241072298  0.7980256465128193  1.0000
  H   H14       1.0  0.35672277247297757  0.11338305408889225  0.29802543135503606  1.0000
  H   H15       1.0  0.8567224733985769  0.3866175389177613  0.7019743876980442  1.0000
  H   H16       1.0  0.6432782594245268  0.6133832603054968  0.20197540159794872  1.0000
  H   H17       1.0  0.7980252596069021  0.14327720600981309  0.8866169408927006  1.0000
  H   H18       1.0  0.2980259901455824  0.35672246334668506  0.11338296964102307  1.0000
  H   H19       1.0  0.7019743921960782  0.8567225877560886  0.3866169165664814  1.0000
  H   H20       1.0  0.20197505957270315  0.6432775336933573  0.6133832467560438  1.0000
  H   H21       1.0  0.8866175607277353  0.798025938314332  0.1432773204040174  1.0000
  H   H22       1.0  0.11338308791449238  0.2980256470392746  0.35672290379017096  1.0000
  H   H23       1.0  0.386616789321657  0.701974593156244  0.8567225551476978  1.0000
  H   H24       1.0  0.6133832635582692  0.20197440560239235  0.643277294514746  1.0000
  H   H25       1.0  0.9138668568557548  0.09013616393929169  0.16915145046393576  1.0000
  H   H26       1.0  0.5861331338061149  0.9098646024843259  0.6691513812643632  1.0000
  H   H27       1.0  0.08613293345460697  0.5901360550307828  0.3308489626013155  1.0000
  H   H28       1.0  0.4138665874431097  0.40986217604393  0.830848279527153  1.0000
  H   H29       1.0  0.16915149233520307  0.913866873786716  0.0901362766247473  1.0000
  H   H30       1.0  0.6691517886293994  0.5861331747746662  0.9098631445464206  1.0000
  H   H31       1.0  0.33084880029976915  0.0861331000228844  0.590135796026473  1.0000
  H   H32       1.0  0.8308486202576476  0.4138670388746347  0.409864460005238  1.0000
  H   H33       1.0  0.09013662650995259  0.1691521017722977  0.9138668117553264  1.0000
  H   H34       1.0  0.9098641467847343  0.6691511976084924  0.5861330051005282  1.0000
  H   H35       1.0  0.5901359732362863  0.3308486925531397  0.0861334227809465  1.0000
  H   H36       1.0  0.4098639549913088  0.8308489888316544  0.41386723087359906  1.0000
  H   H37       1.0  0.0861332955784988  0.9098645247700574  0.8308491814450744  1.0000
  H   H38       1.0  0.41386701862844427  0.0901360862248239  0.3308488539910853  1.0000
  H   H39       1.0  0.9138668223251685  0.4098638403718269  0.6691516693076094  1.0000
  H   H40       1.0  0.5861331683357774  0.5901369260523806  0.16915235238137424  1.0000
  H   H41       1.0  0.8308486600990507  0.0861338149226327  0.9098643552842631  1.0000
  H   H42       1.0  0.33084836380533733  0.4138671172809437  0.09013629740171329  1.0000
  H   H43       1.0  0.6691509554812355  0.9138667953789366  0.4098632492682056  1.0000
  H   H44       1.0  0.16915232548243614  0.5861332531830354  0.5901373618636397  1.0000
  H   H45       1.0  0.9098643192318078  0.8308485869377332  0.08613342349951128  1.0000
  H   H46       1.0  0.090135608995034  0.330848697794117  0.4138676268083968  1.0000
  H   H47       1.0  0.40986417919783236  0.6691515995028541  0.9138668124743032  1.0000
  H   H48       1.0  0.5901361974428098  0.16915130322434635  0.5861330043816578  1.0000
  H   H49       1.0  0.9954292011511966  0.13708174184043287  0.17042466829514777  1.0000
  H   H50       1.0  0.5045703908716135  0.8629174392422456  0.6704242826374623  1.0000
  H   H51       1.0  0.004570296762331301  0.6370826404997986  0.32957618834592484  1.0000
  H   H52       1.0  0.4954288294651261  0.3629163826094697  0.829576521192706  1.0000
  H   H53       1.0  0.17042440772780756  0.9954290989129787  0.13708224854485  1.0000
  H   H54       1.0  0.6704241993881794  0.5045709524745021  0.8629171706428378  1.0000
  H   H55       1.0  0.32957581175435274  0.004570525154441899  0.6370824817170232  1.0000
  H   H56       1.0  0.8295758859983877  0.4954296109163324  0.3629173796449193  1.0000
  H   H57       1.0  0.13708289786221428  0.17042465794727946  0.9954290608370256  1.0000
  H   H58       1.0  0.8629170849513129  0.6704231713781256  0.5045699639839327  1.0000
  H   H59       1.0  0.6370823688539601  0.32957584397488665  0.004570703878215498  1.0000
  H   H60       1.0  0.3629171598941666  0.8295769108104379  0.495429948504828  1.0000
  H   H61       1.0  0.004570554628266199  0.8629181535623758  0.8295763602673387  1.0000
  H   H62       1.0  0.49542936490934153  0.13708324946646397  0.3295759526182989  1.0000
  H   H63       1.0  0.9954290623641455  0.36291725490217885  0.6704240469097511  1.0000
  H   H64       1.0  0.5045713229681111  0.6370831161402392  0.170423714062153  1.0000
  H   H65       1.0  0.8295761413592118  0.004570003183623298  0.8629171934023815  1.0000
  H   H66       1.0  0.32957634970059513  0.4954297362346907  0.1370822713051822  1.0000
  H   H67       1.0  0.6704235473734955  0.9954297669000811  0.3629165635781674  1.0000
  H   H68       1.0  0.17042426643585884  0.5045710777930096  0.637083252264091  1.0000
  H   H69       1.0  0.8629172545723448  0.8295760307618706  0.004571174418423099  1.0000
  H   H70       1.0  0.13708227417503588  0.3295763273705035  0.49542987461798293  1.0000
  H   H71       1.0  0.36291699027295715  0.6704244480802333  0.9954295313776524  1.0000
  H   H72       1.0  0.6370818025803403  0.17042417455034098  0.504569890098189  1.0000
  H   H73       1.0  0.0074675064775036  0.2797294594350035  0.2628727615033455  1.0000
  H   H74       1.0  0.4925329136483043  0.7202694970227695  0.7628738526881234  1.0000
  H   H75       1.0  0.9925319115729039  0.7797296830331317  0.23712625444427718  1.0000
  H   H76       1.0  0.5074683698218506  0.22026996135519986  0.7371264119127758  1.0000
  H   H77       1.0  0.26287363404621533  0.007467823799771599  0.2797294094267855  1.0000
  H   H78       1.0  0.7628727483701923  0.49253216414920326  0.7202697625861347  1.0000
  H   H79       1.0  0.23712636316222555  0.9925327361136453  0.7797295841790017  1.0000
  H   H80       1.0  0.7371263693300492  0.5074678600472637  0.22027012770526966  1.0000
  H   H81       1.0  0.27973032115445307  0.262872668630962  0.0074665200074477  1.0000
  H   H82       1.0  0.7202706460746809  0.7628725428520722  0.49253247909064146  1.0000
  H   H83       1.0  0.7797296339950889  0.23712616679112128  0.9925326257330693  1.0000
  H   H84       1.0  0.22027010029484012  0.7371264292660412  0.5074684490240953  1.0000
  H   H85       1.0  0.9925326459567925  0.7202704359674568  0.7371266804445894  1.0000
  H   H86       1.0  0.5074676354389779  0.27973039838052216  0.23712638256662186  1.0000
  H   H87       1.0  0.007467844206864499  0.22027021236947772  0.7628743774646478  1.0000
  H   H88       1.0  0.4925325759203928  0.7797303307010849  0.26287263338117833  1.0000
  H   H89       1.0  0.7371269150404985  0.9925312782970224  0.7202704291740076  1.0000
  H   H90       1.0  0.23712661075615674  0.5074673345994256  0.2797300760157809  1.0000
  H   H91       1.0  0.7628741859262431  0.007467952595746399  0.22027025442258008  1.0000
  H   H92       1.0  0.2628725931447207  0.49253401862020496  0.7797305042052612  1.0000
  H   H93       1.0  0.7202702279325592  0.7371264334656331  0.9925329219397837  1.0000
  H   H94       1.0  0.27973029966544516  0.23712695589870944  0.507468152817161  1.0000
  H   H95       1.0  0.2202697251310823  0.7628737286110477  0.0074680061761683  1.0000
  H   H96       1.0  0.7797296554840543  0.26287267283026955  0.4925321828844318  1.0000
  H   H97       1.0  0.9130105837475427  0.2680795864102308  0.291821016828095  1.0000
  H   H98       1.0  0.5869908023814927  0.7319197159798418  0.7918211650934879  1.0000
  H   H99       1.0  0.08698960173767029  0.7680801501324197  0.20817917743587336  1.0000
  H   H100      1.0  0.4130105069601269  0.2319191483250904  0.7081791111511322  1.0000
  H   H101      1.0  0.2918204450915454  0.9130103280923617  0.268080124337203  1.0000
  H   H102      1.0  0.7918202272541633  0.5869888029105965  0.7319195023040804  1.0000
  H   H103      1.0  0.20817957026913794  0.0869906168338588  0.7680806290862491  1.0000
  H   H104      1.0  0.7081796655987772  0.41300964631509623  0.2319198181291284  1.0000
  H   H105      1.0  0.2680803282032542  0.29182006157855517  0.9130095660482592  1.0000
  H   H106      1.0  0.7319195275515397  0.7918203497367243  0.586989580106895  1.0000
  H   H107      1.0  0.7680797978265019  0.2081791446272092  0.08699078780988148  1.0000
  H   H108      1.0  0.23191985797754458  0.7081790449028843  0.41301053654510156  1.0000
  H   H109      1.0  0.08699036199214309  0.7319195156874018  0.7081796150795087  1.0000
  H   H110      1.0  0.4130097467060451  0.26808097273013937  0.2081798634687786  1.0000
  H   H111      1.0  0.9130097573889414  0.2319201419228989  0.7918214544735562  1.0000
  H   H112      1.0  0.5869892488208776  0.7680807470767234  0.2918199341435468  1.0000
  H   H113      1.0  0.7081805006488935  0.08698917065822089  0.7319201109170377  1.0000
  H   H114      1.0  0.20817913187205048  0.41301029918467685  0.26807993964407467  1.0000
  H   H115      1.0  0.7918209788188405  0.9130104685292719  0.23192039947621615  1.0000
  H   H116      1.0  0.2918196935278344  0.5869906457402221  0.7680808137803011  1.0000
  H   H117      1.0  0.7319202208831469  0.7081790405184377  0.08699066920609509  1.0000
  H   H118      1.0  0.2680802282288468  0.20817954566548738  0.41301025849490697  1.0000
  H   H119      1.0  0.23191916464531906  0.7918203541215687  0.9130102407530243  1.0000
  H   H120      1.0  0.7680795011495575  0.2918208504986879  0.5869889054034514  1.0000
  C   C1        1.0  0.9002799430550963  0.19732416448950119  0.2466837994730753  1.0000
  C   C2        1.0  0.5997203234475064  0.8026762827556978  0.7466843952715363  1.0000
  C   C3        1.0  0.09971929198907499  0.6973232149710568  0.25331592741815  1.0000
  C   C4        1.0  0.40027995306816416  0.3026761285887645  0.7533167450015269  1.0000
  C   C5        1.0  0.24668447962895357  0.9002804531395655  0.19732350441394428  1.0000
  C   C6        1.0  0.7466837831550351  0.5997193709392332  0.8026761925738697  1.0000
  C   C7        1.0  0.253316042638815  0.09972002443058868  0.6973239515399  1.0000
  C   C8        1.0  0.7533163960980218  0.4002795456434072  0.3026764253283289  1.0000
  C   C9        1.0  0.19732402886812386  0.24668362496058902  0.9002797959127375  1.0000
  C   C10       1.0  0.802676519954801  0.7466828930031254  0.599718908474493  1.0000
  C   C11       1.0  0.6973223889331948  0.2533154241207427  0.09972027156852187  1.0000
  C   C12       1.0  0.3026765738036515  0.753316658760326  0.4002803045936999  1.0000
  C   C13       1.0  0.0997202093794627  0.802676524219649  0.7533164357823734  1.0000
  C   C14       1.0  0.4002790356794108  0.1973240092994217  0.2533158399843316  1.0000
  C   C15       1.0  0.9002788771762907  0.3026766804297907  0.7466847044920113  1.0000
  C   C16       1.0  0.5997198027120447  0.6973241634669947  0.24668388690759704  1.0000
  C   C17       1.0  0.7533180527258805  0.09971904561277967  0.8026767308390604  1.0000
  C   C18       1.0  0.2533155759717544  0.40028052446253776  0.197323646028245  1.0000
  C   C19       1.0  0.7466841097953038  0.9002802676254119  0.3026762837153498  1.0000
  C   C20       1.0  0.24668335968174662  0.5997203497591952  0.6973242065805959  1.0000
  C   C21       1.0  0.8026769168714335  0.7533150804837019  0.0997204393411053  1.0000
  C   C22       1.0  0.19732363247892687  0.25331620909283703  0.4002801368194823  1.0000
  C   C23       1.0  0.30267538357756507  0.7466832813200239  0.9002799636877936  1.0000
  C   C24       1.0  0.6973227853244595  0.24668442660088633  0.5997195340090115  1.0000
  C   C25       1.0  0.9227927978812218  0.15981704642452144  0.21062081477298017  1.0000
  C   C26       1.0  0.5772059382004285  0.8401833647833215  0.7106218798010673  1.0000
  C   C27       1.0  0.07720556056192149  0.6598164796009695  0.2893776846705335  1.0000
  C   C28       1.0  0.422794024955877  0.34018131338091  0.7893777113449189  1.0000
  C   C29       1.0  0.21062237515005217  0.9227940304000128  0.15981598308696482  1.0000
  C   C30       1.0  0.7106227601956262  0.5772061102522343  0.8401825801433986  1.0000
  C   C31       1.0  0.2893778089084407  0.07720601303723379  0.6598163515070112  1.0000
  C   C32       1.0  0.7893781539228611  0.4227944304224067  0.34018357250471337  1.0000
  C   C33       1.0  0.15981759682819777  0.21062266690006476  0.9227930699052748  1.0000
  C   C34       1.0  0.840183268563493  0.7106208057747807  0.5772055984386668  1.0000
  C   C35       1.0  0.6598160720599251  0.28937788550577176  0.0772058660709121  1.0000
  C   C36       1.0  0.3401833674169836  0.7893784326242891  0.4227943494810162  1.0000
  C   C37       1.0  0.0772061645931572  0.8401836422829091  0.7893786271762764  1.0000
  C   C38       1.0  0.4227938175800928  0.15981692727223876  0.28937835545449525  1.0000
  C   C39       1.0  0.9227934019095014  0.3401818291877703  0.7106221539310906  1.0000
  C   C40       1.0  0.5772065241310926  0.6598185820225806  0.2106229205633879  1.0000
  C   C41       1.0  0.7893785705908698  0.07720507169683088  0.8401830622063924  1.0000
  C   C42       1.0  0.2893785821991557  0.42279378515174665  0.15981725845717418  1.0000
  C   C43       1.0  0.7106219468723936  0.9227942790181274  0.34018348709498974  1.0000
  C   C44       1.0  0.21062160185699239  0.5772066549404399  0.6598186460190476  1.0000
  C   C45       1.0  0.8401841422221351  0.7893784184633929  0.0772059753884591  1.0000
  C   C46       1.0  0.1598160905621029  0.2893782963208906  0.4227946368166115  1.0000
  C   C47       1.0  0.34018289041251387  0.7106216132426082  0.9227943691848706  1.0000
  C   C48       1.0  0.6598163883639784  0.21062225608442017  0.5772058857747453  1.0000
  C   C49       1.0  0.9767051797459911  0.16603344739885983  0.19656178706951263  1.0000
  C   C50       1.0  0.5232959581645105  0.8339661564561354  0.6965613432919894  1.0000
  C   C51       1.0  0.023294382462005103  0.6660331715601727  0.3034387018542332  1.0000
  C   C52       1.0  0.47670518114694715  0.33396622208507415  0.8034394316007933  1.0000
  C   C53       1.0  0.1965622500088955  0.9767055271897432  0.16603316889259637  1.0000
  C   C54       1.0  0.6965609383986189  0.5232929956267894  0.8339673995192242  1.0000
  C   C55       1.0  0.30343832101674195  0.023295315766510796  0.6660330648621693  1.0000
  C   C56       1.0  0.8034387954417709  0.4767047622632176  0.3339668372355291  1.0000
  C   C57       1.0  0.16603270446891116  0.19656094997925067  0.9767062099766263  1.0000
  C   C58       1.0  0.8339657497728509  0.6965602111376723  0.5232944275830391  1.0000
  C   C59       1.0  0.6660332782017376  0.30343842627207346  0.023295096232260396  1.0000
  C   C60       1.0  0.3339661925007603  0.8034394101081684  0.4767055300267628  1.0000
  C   C61       1.0  0.023294972687509095  0.8339668446575388  0.8034392414928675  1.0000
  C   C62       1.0  0.4767045909232124  0.16603413560030583  0.3034388919629549  1.0000
  C   C63       1.0  0.9767041833568297  0.33396632718776686  0.6965615334018623  1.0000
  C   C64       1.0  0.5232937813256696  0.6660328800097657  0.19656001034767454  1.0000
  C   C65       1.0  0.8034398856930879  0.02329436821511169  0.833966669707351  1.0000
  C   C66       1.0  0.3034392140319255  0.4767049165109185  0.1660340256955237  1.0000
  C   C67       1.0  0.6965610381111061  0.9767049762880119  0.33396598043302106  1.0000
  C   C68       1.0  0.19655977037662353  0.5232943398315796  0.6660333980203675  1.0000
  C   C69       1.0  0.8339662580027322  0.8034389454230747  0.023295611893594494  1.0000
  C   C70       1.0  0.16603321269976587  0.3034388909571675  0.47670501436542867  1.0000
  C   C71       1.0  0.33396608092505187  0.696561469129698  0.976704742369854  1.0000
  C   C72       1.0  0.6660331666273507  0.1965616752530508  0.5232943085759416  1.0000
  C   C73       1.0  0.0066217987601362  0.20830449897704278  0.21529571850162907  1.0000
  C   C74       1.0  0.4933794888082871  0.7916944099402342  0.7152964831024562  1.0000
  C   C75       1.0  0.9933790472865454  0.708305565302112  0.284702829403372  1.0000
  C   C76       1.0  0.5066211599729726  0.2916937299740496  0.7847034562331242  1.0000
  C   C77       1.0  0.2152970726982062  0.0066212774711971005  0.2083048327481478  1.0000
  C   C78       1.0  0.7152964742626436  0.4933793981342304  0.7916932234537624  1.0000
  C   C79       1.0  0.2847030358049807  0.9933792110713994  0.7083049341968035  1.0000
  C   C80       1.0  0.7847033254518507  0.5066214907396399  0.29169470353757276  1.0000
  C   C81       1.0  0.20830683849565187  0.21529563038836838  0.006620093190889499  1.0000
  C   C82       1.0  0.7916948163825666  0.7152956640606406  0.49337885835407747  1.0000
  C   C83       1.0  0.7083050657140715  0.28470225312144487  0.9933787672121567  1.0000
  C   C84       1.0  0.29169358427304093  0.7847038633159685  0.5066219584446755  1.0000
  C   C85       1.0  0.9933783536737195  0.791694999772268  0.7847037234461066  1.0000
  C   C86       1.0  0.5066214569330325  0.2083058821166475  0.28470375215218263  1.0000
  C   C87       1.0  0.006621501800424298  0.29169433010137874  0.715297802504935  1.0000
  C   C88       1.0  0.4933797857704646  0.708307355388335  0.21529519240765885  1.0000
  C   C89       1.0  0.7847042696971939  0.9933786179323788  0.7916942125452946  1.0000
  C   C90       1.0  0.28470447147898875  0.5066208939224525  0.2083066151473147  1.0000
  C   C91       1.0  0.715296719976159  0.006621080983762801  0.291694507751636  1.0000
  C   C92       1.0  0.215295240367773  0.49338038792837585  0.7083079116410714  1.0000
  C   C93       1.0  0.791694503897993  0.784702678402617  0.9933789521017643  1.0000
  C   C94       1.0  0.20830612935800724  0.28470423134329076  0.506621773553924  1.0000
  C   C95       1.0  0.29169429341152403  0.7152968489742264  0.0066214680431216  1.0000
  C   C96       1.0  0.7083045848933835  0.21529642873763064  0.4933778801585617  1.0000
  C   C97       1.0  0.9837216335992381  0.24644340432075745  0.2491402344969913  1.0000
  C   C98       1.0  0.516279025728508  0.753556648726551  0.7491413079009134  1.0000
  C   C99       1.0  0.016278107182756695  0.746442267054988  0.250857954873581  1.0000
  C   C100      1.0  0.48372074505000734  0.2535566773954372  0.7508593866246116  1.0000
  C   C101      1.0  0.24914140641080706  0.9837216266294249  0.24644274120829826  1.0000
  C   C102      1.0  0.7491402045171826  0.5162785995578717  0.7535569519509123  1.0000
  C   C103      1.0  0.2508582460111554  0.01627850336890189  0.7464431087655398  1.0000
  C   C104      1.0  0.7508584646605243  0.48372106124710956  0.2535572719333458  1.0000
  C   C105      1.0  0.24644396179909478  0.24913940082854674  0.983720198500805  1.0000
  C   C106      1.0  0.753556592480308  0.7491408563352236  0.5162781116884716  1.0000
  C   C107      1.0  0.7464420497734209  0.25085777406315657  0.016278999117659496  1.0000
  C   C108      1.0  0.25355690750548376  0.7508589830050666  0.4837215745881593  1.0000
  C   C109      1.0  0.016278915489543504  0.7535572843884352  0.7508592074510289  1.0000
  C   C110      1.0  0.4837207300523191  0.24644364332880997  0.25085853070108743  1.0000
  C   C111      1.0  0.9837212519437201  0.25355762834698226  0.7491422803820953  1.0000
  C   C112      1.0  0.5162786140778407  0.7464436146590927  0.24913965867057894  1.0000
  C   C113      1.0  0.7508595393299372  0.016277872120966198  0.7535570973923739  1.0000
  C   C114      1.0  0.2508603445687783  0.48372010588597897  0.24644328330324328  1.0000
  C   C115      1.0  0.7491419064225225  0.9837213920339494  0.25355712648951817  1.0000
  C   C116      1.0  0.24913891119865633  0.5162800241125041  0.7464437566315921  1.0000
  C   C117      1.0  0.7535573805927386  0.7508581146567365  0.0162800367521285  1.0000
  C   C118      1.0  0.24644316330276436  0.2508606256789889  0.4837205369534486  1.0000
  C   C119      1.0  0.25355651604498064  0.7491413280316338  0.9837212361382369  1.0000
  C   C120      1.0  0.7464428482760964  0.24914170570324495  0.5162778673604791  1.0000
  C   C121      1.0  0.9315803085869659  0.23999099746531263  0.2647517627381574  1.0000
  C   C122      1.0  0.5684191364542599  0.760009071180207  0.7647523646746918  1.0000
  C   C123      1.0  0.06841862455880231  0.7399907536917637  0.2352472134915118  1.0000
  C   C124      1.0  0.43158144195854203  0.26000698520139304  0.7352483362982623  1.0000
  C   C125      1.0  0.26475165596963984  0.9315807910973817  0.23999113282533804  1.0000
  C   C126      1.0  0.7647525430841923  0.5684190731035487  0.7600085360030064  1.0000
  C   C127      1.0  0.235247609851946  0.068419332453594  0.7399911801724952  1.0000
  C   C128      1.0  0.73524770265513  0.43158099080324763  0.2600092248565318  1.0000
  C   C129      1.0  0.23999205230006737  0.26475163552832726  0.9315793074971166  1.0000
  C   C130      1.0  0.7600085366479802  0.764751174198679  0.5684198116025314  1.0000
  C   C131      1.0  0.7399908176663245  0.2352475083022227  0.06841910687019488  1.0000
  C   C132      1.0  0.26000850159854844  0.7352478861628525  0.4315810545791052  1.0000
  C   C133      1.0  0.06841944719355549  0.7600092945902402  0.735248472517412  1.0000
  C   C134      1.0  0.43158061932669506  0.23999161752849568  0.23524787058106966  1.0000
  C   C135      1.0  0.9315807345669285  0.26000874505725585  0.7647534184175271  1.0000
  C   C136      1.0  0.5684195037807099  0.7399917202430899  0.26475229560914215  1.0000
  C   C137      1.0  0.7352496864247087  0.0684187076534428  0.7600087057750357  1.0000
  C   C138      1.0  0.2352480060033955  0.4315808222995442  0.23999130259818455  1.0000
  C   C139      1.0  0.7647525425820374  0.9315805629490582  0.26000865842900106  1.0000
  C   C140      1.0  0.26475086316498414  0.568420491211029  0.739992200361236  1.0000
  C   C141      1.0  0.7600088934416077  0.735247863221467  0.0684193411428851  1.0000
  C   C142      1.0  0.23999121913148258  0.23524872120412965  0.43158121695995527  1.0000
  C   C143      1.0  0.2600081448064273  0.7647519904459585  0.9315807317320335  1.0000
  C   C144      1.0  0.7399904608750345  0.26475319919851603  0.5684199739845894  1.0000
  C   C145      1.0  0.8450320273814356  0.1936832334871781  0.265873543309297  1.0000
  C   C146      1.0  0.6549670192576258  0.8063176295860829  0.7658760399101894  1.0000
  C   C147      1.0  0.15496561296428268  0.6936823874754409  0.23412419667635476  1.0000
  C   C148      1.0  0.3450336619965028  0.3063161436010517  0.734125500654933  1.0000
  C   C149      1.0  0.26587531559708566  0.8450338288365487  0.19368218216472138  1.0000
  C   C150      1.0  0.7658759260994544  0.6549644512465064  0.8063170882582184  1.0000
  C   C151      1.0  0.23412560899785717  0.1549666450957048  0.6936831110717633  1.0000
  C   C152      1.0  0.7341250407862103  0.34503327901571623  0.30631729570625044  1.0000
  C   C153      1.0  0.19368241651997659  0.2658764491985863  0.8450342970904997  1.0000
  C   C154      1.0  0.8063181749246198  0.7658749872259206  0.6549652197864475  1.0000
  C   C155      1.0  0.6936822344927122  0.2341237817575532  0.15496656937290956  1.0000
  C   C156      1.0  0.3063174789312412  0.7341253659297351  0.3450339876070955  1.0000
  C   C157      1.0  0.15496614178605483  0.8063174552191726  0.734125501987016  1.0000
  C   C158      1.0  0.34503313317618733  0.19368266247010976  0.23412459199862207  1.0000
  C   C159      1.0  0.8450333495081138  0.3063179045798278  0.7658772285405105  1.0000
  C   C160      1.0  0.6549653004743448  0.6936841484552118  0.2658779078297329  1.0000
  C   C161      1.0  0.7341276134110897  0.15496487660954733  0.8063172597804495  1.0000
  C   C162      1.0  0.2341234330263191  0.34503425419562456  0.19368235368973785  1.0000
  C   C163      1.0  0.7658741467823519  0.8450336469600545  0.30631752083736064  1.0000
  C   C164      1.0  0.26587669825979526  0.6549650297765056  0.6936833362003368  1.0000
  C   C165      1.0  0.8063185292209027  0.7341234462051459  0.15496593816394008  1.0000
  C   C166      1.0  0.1936827708171833  0.23412490817721474  0.3450338255073078  1.0000
  C   C167      1.0  0.30631633132392716  0.7658737337246463  0.8450336658821981  1.0000
  C   C168      1.0  0.6936818801950579  0.2658749261257753  0.6549670409558954  1.0000
  C   C169      1.0  0.0641207197246842  0.21210845953279994  0.2013302970379698  1.0000
  C   C170      1.0  0.4358797962981454  0.7878912287352335  0.7013315441051943  1.0000
  C   C171      1.0  0.9358789448070864  0.7121078255154742  0.2986682546691171  1.0000
  C   C172      1.0  0.5641196540793344  0.28789386363288116  0.7986691847388698  1.0000
  C   C173      1.0  0.20133215028668866  0.06412089753899862  0.21210719339647  1.0000
  C   C174      1.0  0.7013306367725319  0.4358793504024375  0.7878928678385078  1.0000
  C   C175      1.0  0.29866715898416624  0.9358795948023725  0.7121076122643899  1.0000
  C   C176      1.0  0.798667978903559  0.5641207413653505  0.28789240035943203  1.0000
  C   C177      1.0  0.21210830629468796  0.2013318859071943  0.06411977668602728  1.0000
  C   C178      1.0  0.7878921276113217  0.7013310603736967  0.43587916090287127  1.0000
  C   C179      1.0  0.7121070507766376  0.29866838596370826  0.9358790777931033  1.0000
  C   C180      1.0  0.2878916302264614  0.7986696485184339  0.5641208685153813  1.0000
  C   C181      1.0  0.9358790360587007  0.7878930224812138  0.798667954950389  1.0000
  C   C182      1.0  0.5641203561361506  0.21210866666722683  0.29866789784274056  1.0000
  C   C183      1.0  0.06412001766755539  0.2878936564986532  0.7013319805876533  1.0000
  C   C184      1.0  0.43587930839574807  0.7121080150343956  0.2013310505180996  1.0000
  C   C185      1.0  0.7986699854156497  0.9358782045587689  0.7878910585888406  1.0000
  C   C186      1.0  0.2986683256992889  0.5641201483463404  0.21210816072439798  1.0000
  C   C187      1.0  0.7013325967977265  0.06412109390574017  0.28789143303069403  1.0000
  C   C188      1.0  0.2013305869159794  0.43587994734243557  0.7121086282043761  1.0000
  C   C189      1.0  0.7878926394468097  0.79866800949614  0.9358796652612895  1.0000
  C   C190      1.0  0.21210802482310237  0.29866923168210485  0.5641206776988241  1.0000
  C   C191      1.0  0.2878923083507701  0.7013315094376652  0.06411996750188817  1.0000
  C   C192      1.0  0.7121085222082756  0.20133064353716884  0.4358785734327454  1.0000
  N   N1        1.0  0.8946835145648249  0.1187201687032129  0.1896521223179093  1.0000
  N   N2        1.0  0.6053184274190498  0.8812794282485612  0.6896523913026015  1.0000
  N   N3        1.0  0.10531594257101769  0.6187196852545114  0.3103475260096502  1.0000
  N   N4        1.0  0.3946840069246135  0.3812793186423349  0.8103496208387992  1.0000
  N   N5        1.0  0.1896520934283784  0.8946835746220784  0.1187198999386467  1.0000
  N   N6        1.0  0.6896528735158115  0.6053157261582242  0.8812806792416268  1.0000
  N   N7        1.0  0.31034775801358444  0.1053164277492016  0.618719470465031  1.0000
  N   N8        1.0  0.8103483732154614  0.3946828723176381  0.38128042086359665  1.0000
  N   N9        1.0  0.11871872932938028  0.18965234858313815  0.8946842368882812  1.0000
  N   N10       1.0  0.8812797095700872  0.6896517967683805  0.6053163937664293  1.0000
  N   N11       1.0  0.6187195872531744  0.3103489058673786  0.10531634975450997  1.0000
  N   N12       1.0  0.3812798987948369  0.8103491195036482  0.3946846800646141  1.0000
  N   N13       1.0  0.10531624121582439  0.8812805200056956  0.8103485095914065  1.0000
  N   N14       1.0  0.39468251832213497  0.11872046715497218  0.3103474472982768  1.0000
  N   N15       1.0  0.8946834165562549  0.38127981349352064  0.6896511226315808  1.0000
  N   N16       1.0  0.6053149555446494  0.6187189901477907  0.1896529943377558  1.0000
  N   N17       1.0  0.8103488523120604  0.10531592412850439  0.881280335315594  1.0000
  N   N18       1.0  0.31034846887791895  0.39468377259299814  0.1187199526658631  1.0000
  N   N19       1.0  0.6896508078073748  0.8946838643042483  0.381279178177216  1.0000
  N   N20       1.0  0.189650589255919  0.6053162297779976  0.6187206076991102  1.0000
  N   N21       1.0  0.8812802331434568  0.8103483401252871  0.10531718832878308  1.0000
  N   N22       1.0  0.11872004620911268  0.31034730532773114  0.3946838414885363  1.0000
  N   N23       1.0  0.38127977187612316  0.6896529727999335  0.8946830921950379  1.0000
  N   N24       1.0  0.618720253639104  0.18965156920589973  0.6053163484979578  1.0000
  O   O1        1.0  0.20491766411433326  0.20491531281140135  0.20491950179390267  1.0000
  O   O2        1.0  0.29508403627470153  0.7950812058181923  0.704918595563143  1.0000
  O   O3        1.0  0.7950807944835744  0.7049195190427964  0.2950841992233748  1.0000
  O   O4        1.0  0.7049201899113199  0.2950825631788945  0.7950829337699756  1.0000
  O   O5        1.0  0.7950844715850138  0.7950822026745641  0.7950803368048582  1.0000
  O   O6        1.0  0.7049184960804881  0.20491749962706513  0.29508005307522467  1.0000
  O   O7        1.0  0.20491658137489568  0.2950831529309923  0.7049200025708372  1.0000
  O   O8        1.0  0.29508432571416415  0.7049193154945427  0.20491730148267348  1.0000
  O   O9        1.0  0.8140462194846803  0.1590093568762397  0.24465456790899504  1.0000
  O   O10       1.0  0.6859544468338824  0.8409910883414469  0.7446546709508155  1.0000
  O   O11       1.0  0.1859529304707337  0.6590074109177448  0.25534353407238086  1.0000
  O   O12       1.0  0.31404551811884557  0.34099114136106573  0.7553445243499722  1.0000
  O   O13       1.0  0.24465553056408137  0.8140472440122792  0.15900791891784385  1.0000
  O   O14       1.0  0.744656552507564  0.685952575561906  0.8409897979630042  1.0000
  O   O15       1.0  0.2553450514074668  0.18595319527118184  0.6590084490705832  1.0000
  O   O16       1.0  0.7553443603492764  0.31404558600122096  0.34099232128935597  1.0000
  O   O17       1.0  0.15900854599891548  0.24465505513400385  0.8140461507456535  1.0000
  O   O18       1.0  0.8409904117059238  0.744656081040851  0.6859533449232842  1.0000
  O   O19       1.0  0.6590091561195095  0.2553443055193582  0.1859551664105652  1.0000
  O   O20       1.0  0.3409913977360759  0.7553451424173048  0.31404660173873816  1.0000
  O   O21       1.0  0.18595353629795847  0.8409917284848232  0.7553440807327262  1.0000
  O   O22       1.0  0.3140453089472999  0.1590084104068268  0.2553435810365485  1.0000
  O   O23       1.0  0.8140452386938005  0.340990897869915  0.7446559078763  1.0000
  O   O24       1.0  0.6859534443546024  0.6590095473469617  0.24465610755996883  1.0000
  O   O25       1.0  0.7553454151787875  0.18595304804360777  0.8409903330689872  1.0000
  O   O26       1.0  0.25534399657919227  0.3140457332279992  0.15900885067670598  1.0000
  O   O27       1.0  0.744654307719763  0.8140470967837389  0.3409913895317302  1.0000
  O   O28       1.0  0.24465618873769301  0.6859543094022695  0.6590083106189509  1.0000
  O   O29       1.0  0.8409908131287479  0.7553456335740664  0.18595368785685906  1.0000
  O   O30       1.0  0.1590085507684549  0.25534460766657924  0.31404609702597236  1.0000
  O   O31       1.0  0.3409905996574452  0.7446536066179092  0.8140462588044881  1.0000
  O   O32       1.0  0.6590083580444456  0.24465514963825535  0.6859536335168243  1.0000
  O   O33       1.0  0.8310781568294132  0.2255257579696206  0.30298566717632264  1.0000
  O   O34       1.0  0.6689196420217058  0.7744775221061532  0.8029896968198854  1.0000
  O   O35       1.0  0.16891995088418812  0.7255245092077162  0.19701289794209484  1.0000
  O   O36       1.0  0.33107898525167184  0.27447438143753533  0.697013001882901  1.0000
  O   O37       1.0  0.30298737607392207  0.8310800248500739  0.22552430414671673  1.0000
  O   O38       1.0  0.802990447101969  0.6689191309552668  0.7744776850093655  1.0000
  O   O39       1.0  0.19701310225158153  0.1689216708595609  0.7255257014952362  1.0000
  O   O40       1.0  0.6970137426264457  0.3310781708407403  0.2744755564299126  1.0000
  O   O41       1.0  0.2255222497305809  0.30299051935244137  0.8310804152218549  1.0000
  O   O42       1.0  0.7744784241363971  0.8029893972723625  0.6689195354038089  1.0000
  O   O43       1.0  0.7255227568465301  0.19701017896125714  0.16891921165719032  1.0000
  O   O44       1.0  0.27447568419768226  0.6970124717893639  0.3310793249617632  1.0000
  O   O45       1.0  0.16892040899167432  0.7744749307371703  0.697013378119685  1.0000
  O   O46       1.0  0.3310785271444984  0.22552395990788196  0.19701212505174942  1.0000
  O   O47       1.0  0.8310802015491702  0.2744781627693555  0.8029917005035117  1.0000
  O   O48       1.0  0.6689179939457971  0.7255227373925308  0.3029927865230846  1.0000
  O   O49       1.0  0.6970151562827239  0.16892026720797299  0.7744747411460011  1.0000
  O   O50       1.0  0.19701010198442492  0.3310799711417332  0.2255225502449818  1.0000
  O   O51       1.0  0.8029858602221793  0.8310790178482678  0.2744745337611434  1.0000
  O   O52       1.0  0.30299037634169684  0.6689189479934825  0.7255226955528613  1.0000
  O   O53       1.0  0.7744790926637676  0.6970089793983832  0.16891942337851867  1.0000
  O   O54       1.0  0.22552410822157748  0.19701208474513268  0.3310795098894984  1.0000
  O   O55       1.0  0.2744746190099717  0.8029865432123341  0.8310790403306354  1.0000
  O   O56       1.0  0.7255236749294126  0.3029874236122155  0.66892011698679  1.0000
  O   O57       1.0  0.08483116906081278  0.17260657675861782  0.17722522763365584  1.0000
  O   O58       1.0  0.41517057448456285  0.8273922941163717  0.6772241665376767  1.0000
  O   O59       1.0  0.9151695977073117  0.6726071107991916  0.3227740778986358  1.0000
  O   O60       1.0  0.5848293602691114  0.3273926191711353  0.8227742218643215  1.0000
  O   O61       1.0  0.1772279614395842  0.08483169852151919  0.1726056844015886  1.0000
  O   O62       1.0  0.6772267370352055  0.4151688925458997  0.8273920344791036  1.0000
  O   O63       1.0  0.3227733926520883  0.915169944309909  0.6726064416547286  1.0000
  O   O64       1.0  0.8227745936645475  0.5848292554294331  0.32739313674434806  1.0000
  O   O65       1.0  0.17260553136802773  0.1772288271892322  0.08483066443126569  1.0000
  O   O66       1.0  0.8273936590457038  0.6772256887616946  0.4151698356809845  1.0000
  O   O67       1.0  0.6726075348794182  0.32277373688442873  0.9151702348805841  1.0000
  O   O68       1.0  0.32739199296226934  0.8227743145410216  0.5848305288270267  1.0000
  O   O69       1.0  0.9151689833752952  0.8273941119495445  0.8227730243539922  1.0000
  O   O70       1.0  0.5848303712586542  0.1726072046324276  0.32277249883452436  1.0000
  O   O71       1.0  0.08482936476507769  0.3273931812560846  0.6772273473182295  1.0000
  O   O72       1.0  0.4151692055498585  0.6726072762301525  0.17722641004553444  1.0000
  O   O73       1.0  0.8227757608794092  0.915168593536862  0.8273913776223975  1.0000
  O   O74       1.0  0.32277301874460557  0.584830209549814  0.172607407468746  1.0000
  O   O75       1.0  0.6772255698221555  0.08483034774417322  0.3273926036407672  1.0000
  O   O76       1.0  0.177225955422422  0.41517063997405773  0.6726074951639589  1.0000
  O   O77       1.0  0.8273934311076231  0.8227738447845352  0.9151699674796703  1.0000
  O   O78       1.0  0.17260689004201177  0.32277460329474644  0.5848303995739599  1.0000
  O   O79       1.0  0.32739341086322327  0.6772277451318942  0.08483000037464448  1.0000
  O   O80       1.0  0.672607366163639  0.17722478755445079  0.41516930977468997  1.0000
  O   O81       1.0  0.0883225752711283  0.25445637344712674  0.21529766116694296  1.0000
  O   O82       1.0  0.4116787122946447  0.7455429321252821  0.7152985069729423  1.0000
  O   O83       1.0  0.9116771833072547  0.7544572583428462  0.2847017261741627  1.0000
  O   O84       1.0  0.588322627303384  0.24554322689014185  0.7847001962740733  1.0000
  O   O85       1.0  0.2152983174231551  0.0883231226967354  0.2544563086473274  1.0000
  O   O86       1.0  0.7152987994205375  0.41167794956579934  0.7455417475519964  1.0000
  O   O87       1.0  0.28470013255332555  0.9116789985735637  0.754456725093611  1.0000
  O   O88       1.0  0.7847006755526209  0.5883220998850546  0.24554410260597587  1.0000
  O   O89       1.0  0.25445821451513945  0.21529849902285042  0.08832156765724619  1.0000
  O   O90       1.0  0.7455430437150311  0.7152983485701866  0.4116781771979348  1.0000
  O   O91       1.0  0.7544573623454484  0.28470147023829634  0.9116768241642104  1.0000
  O   O92       1.0  0.24554247760075038  0.784702266280952  0.5883227115298195  1.0000
  O   O93       1.0  0.9116767838574732  0.7455443152603466  0.7847009874748848  1.0000
  O   O94       1.0  0.5883218367940017  0.25445735993056223  0.28470053832131725  1.0000
  O   O95       1.0  0.0883221758191723  0.2455434303660127  0.715299699042589  1.0000
  O   O96       1.0  0.4116783184408063  0.7544582551251934  0.2152980557133546  1.0000
  O   O97       1.0  0.7847026283194011  0.9116771693593504  0.7455423399930651  1.0000
  O   O98       1.0  0.28470095635984893  0.5883219458364124  0.25445809104980543  1.0000
  O   O99       1.0  0.7152996232280698  0.0883220867882883  0.24554351016234924  1.0000
  O   O100      1.0  0.21529828691946307  0.4116781921704201  0.754457719264451  1.0000
  O   O101      1.0  0.7455439211874689  0.7847013963816065  0.9116774776355852  1.0000
  O   O102      1.0  0.2544571087194  0.28470194348561506  0.5883216614037606  1.0000
  O   O103      1.0  0.24554199678182437  0.7152980285097285  0.08832182447702047  1.0000
  O   O104      1.0  0.7544580714862689  0.21529683581565004  0.4116767304174117  1.0000
