data_image0
_chemical_formula_structural       Zn16H144C264O52
_chemical_formula_sum              "Zn16 H144 C264 O52"
_cell_length_a       20.577297350463688
_cell_length_b       20.577254008523944
_cell_length_c       29.427070442329235
_cell_angle_alpha    69.53381847487141
_cell_angle_beta     69.53369747084648
_cell_angle_gamma    59.99964717978946

_space_group_name_H-M_alt    "P 1"
_space_group_IT_number       1

loop_
  _space_group_symop_operation_xyz
  'x, y, z'

loop_
  _atom_site_type_symbol
  _atom_site_label
  _atom_site_symmetry_multiplicity
  _atom_site_fract_x
  _atom_site_fract_y
  _atom_site_fract_z
  _atom_site_occupancy
  Zn  Zn1       1.0  0.6273601965959088  0.4970257679220039  0.20346791632445616  1.0000
  Zn  Zn2       1.0  0.6720977680539376  0.6273407510313903  0.20347068148625175  1.0000
  Zn  Zn3       1.0  0.4969823148866155  0.6721002058879079  0.20349326549329308  1.0000
  Zn  Zn4       1.0  0.8726621969742182  0.8278994190989766  0.2965293473147596  1.0000
  Zn  Zn5       1.0  0.8279014875205918  0.003015000703456467  0.2965072542752266  1.0000
  Zn  Zn6       1.0  0.002976893079285499  0.8726365536352177  0.29653214470188505  1.0000
  Zn  Zn7       1.0  0.37263878957984525  0.5029747881281283  0.7965322916206076  1.0000
  Zn  Zn8       1.0  0.32790179281285964  0.37266007637489923  0.7965293197543486  1.0000
  Zn  Zn9       1.0  0.5030178206338219  0.3279003741751866  0.7965066557791827  1.0000
  Zn  Zn10      1.0  0.1273379385088234  0.17210064226475907  0.7034707006940478  1.0000
  Zn  Zn11      1.0  0.1720980729920569  0.9969837517035032  0.7034939336563608  1.0000
  Zn  Zn12      1.0  0.9970238171222687  0.127362741786918  0.7034676102022955  1.0000
  Zn  Zn13      1.0  0.5674364025771864  0.5674839831563079  0.29773058463505453  1.0000
  Zn  Zn14      1.0  0.9325196581598899  0.9325605071483525  0.2022690452461973  1.0000
  Zn  Zn15      1.0  0.43256373284097543  0.43251659680582605  0.7022696765102479  1.0000
  Zn  Zn16      1.0  0.06748047746281569  0.06744007301568901  0.7977305361534518  1.0000
  H   H1        1.0  0.8302477897497339  0.37477589171594883  0.11494385065080337  1.0000
  H   H2        1.0  0.6801137841948018  0.830212405549162  0.11487383116596545  1.0000
  H   H3        1.0  0.3748697942262496  0.6799762386323494  0.11491295930406407  1.0000
  H   H4        1.0  0.6697902830229124  0.8198833003871333  0.38512511166951646  1.0000
  H   H5        1.0  0.82002579710597  0.1251275201701033  0.3850872606313017  1.0000
  H   H6        1.0  0.1252241718547111  0.6697506839756073  0.3850567950450524  1.0000
  H   H7        1.0  0.1697506216975881  0.6252238742786747  0.8850566907350482  1.0000
  H   H8        1.0  0.31988520198095216  0.16978815050097043  0.885126376779098  1.0000
  H   H9        1.0  0.6251303414712551  0.3200253789304028  0.8850863686229218  1.0000
  H   H10       1.0  0.3302092778713614  0.18011648972139951  0.6148748031709202  1.0000
  H   H11       1.0  0.17997433858161568  0.8748725413955403  0.6149121076318449  1.0000
  H   H12       1.0  0.8747759635535246  0.3302483399894172  0.6149435064364112  1.0000
  H   H13       1.0  0.9534966148074485  0.31614042208620674  0.05776609474844456  1.0000
  H   H14       1.0  0.6726020081961437  0.9535135925007695  0.057743016462083595  1.0000
  H   H15       1.0  0.31613057900405284  0.6725410150670966  0.05779906253255267  1.0000
  H   H16       1.0  0.5464892534094759  0.8273950256492668  0.44225704391615034  1.0000
  H   H17       1.0  0.8274603184310435  0.18386877091172954  0.4422005405154649  1.0000
  H   H18       1.0  0.18385897169144974  0.5465027444265474  0.44223466549266277  1.0000
  H   H19       1.0  0.0465017966772692  0.6838598626077684  0.9422343199010753  1.0000
  H   H20       1.0  0.32739697808188584  0.04648696365032385  0.9422568516101463  1.0000
  H   H21       1.0  0.6838701314218836  0.3274613925511646  0.9421999319536455  1.0000
  H   H22       1.0  0.45351030714057566  0.17260424545704478  0.5577440172791056  1.0000
  H   H23       1.0  0.17253924260290177  0.8161315379971156  0.5577989077158064  1.0000
  H   H24       1.0  0.8161400144843041  0.45349781162358505  0.5577655424524011  1.0000
  H   H25       1.0  0.017705095685855095  0.48716142176427024  0.0562404426511378  1.0000
  H   H26       1.0  0.43891243431980337  0.017670479370686148  0.05623755926099962  1.0000
  H   H27       1.0  0.48709850619379574  0.438807603609341  0.056271564133396575  1.0000
  H   H28       1.0  0.48233081709656733  0.06108591662022902  0.44376115578079817  1.0000
  H   H29       1.0  0.06119490701837549  0.012899237646443901  0.4437280361017385  1.0000
  H   H30       1.0  0.0128409025923801  0.4822924785975005  0.44376041541451633  1.0000
  H   H31       1.0  0.9822938903502274  0.5128386154855566  0.943760231903084  1.0000
  H   H32       1.0  0.5610865516513995  0.9823300764775311  0.9437633284297177  1.0000
  H   H33       1.0  0.5128993304052543  0.5611939655236783  0.9437296966300792  1.0000
  H   H34       1.0  0.5176681691814622  0.9389146395308644  0.5562387122914315  1.0000
  H   H35       1.0  0.9388052284272631  0.9871003050179329  0.5562721386433934  1.0000
  H   H36       1.0  0.987160382160539  0.5177065693804793  0.5562395993943667  1.0000
  H   H37       1.0  0.8948107041131407  0.5441614281189691  0.11456176716679776  1.0000
  H   H38       1.0  0.4465005733926758  0.8947948310343964  0.11456357773102605  1.0000
  H   H39       1.0  0.5441743902187709  0.44635048611132794  0.11456208556022322  1.0000
  H   H40       1.0  0.6052069805314985  0.053498266750438055  0.38543510077430193  1.0000
  H   H41       1.0  0.05365300533624409  0.9558233629914883  0.3854361990818375  1.0000
  H   H42       1.0  0.9558397726924639  0.6051855999450596  0.3854389538471848  1.0000
  H   H43       1.0  0.10518885670634148  0.45583732459085285  0.8854384011462955  1.0000
  H   H44       1.0  0.5534989873993225  0.10520495897318238  0.8854366769822376  1.0000
  H   H45       1.0  0.45582459610657367  0.5536521447362193  0.8854376154395209  1.0000
  H   H46       1.0  0.3947925805398426  0.9465025608577664  0.614564220720645  1.0000
  H   H47       1.0  0.9463477046233562  0.0441754135293809  0.6145643623043355  1.0000
  H   H48       1.0  0.044160937573970195  0.3948131768786852  0.6145605879204936  1.0000
  H   H49       1.0  0.13540686521714207  0.3908694926122465  0.04178197935016928  1.0000
  H   H50       1.0  0.431919366671174  0.13540975405675235  0.041747699055235864  1.0000
  H   H51       1.0  0.39086914928984823  0.4318216315622507  0.04177040679079619  1.0000
  H   H52       1.0  0.36459353816721307  0.06807755209650422  0.4582520161094052  1.0000
  H   H53       1.0  0.06818019613501039  0.109129802055314  0.45822847031198677  1.0000
  H   H54       1.0  0.1091319354651574  0.3645916534527274  0.4582190037445102  1.0000
  H   H55       1.0  0.8645926956122593  0.6091308160946842  0.9582181486267699  1.0000
  H   H56       1.0  0.5680813435028965  0.8645905786631332  0.958252142249108  1.0000
  H   H57       1.0  0.6091304117440968  0.5681786773465947  0.9582290414404752  1.0000
  H   H58       1.0  0.6354065971387541  0.9319214717675667  0.5417486252448922  1.0000
  H   H59       1.0  0.9318193647966597  0.8908705067525771  0.5417713177921185  1.0000
  H   H60       1.0  0.8908687745043621  0.6354086790652503  0.5417815173054945  1.0000
  H   H61       1.0  0.2532116614116831  0.2827401696793075  0.9166762699791275  1.0000
  H   H62       1.0  0.5473908254726323  0.2532340088686099  0.9167100683275462  1.0000
  H   H63       1.0  0.2827633204297654  0.5473807151339685  0.9166603829321287  1.0000
  H   H64       1.0  0.24676772659177706  0.9526072060002236  0.5832894503959096  1.0000
  H   H65       1.0  0.9526214619852453  0.21723433933443914  0.5833390398800659  1.0000
  H   H66       1.0  0.21726093734856985  0.24678692499153954  0.5833249403189171  1.0000
  H   H67       1.0  0.7467884739316801  0.7172593728841151  0.08332424463883813  1.0000
  H   H68       1.0  0.45260873542164143  0.7467657812399298  0.08328984651289051  1.0000
  H   H69       1.0  0.7172362406415757  0.45262011247422873  0.08333893856281797  1.0000
  H   H70       1.0  0.7532312595465811  0.047392831350556705  0.41671088428548586  1.0000
  H   H71       1.0  0.0473780991234989  0.78276700697311  0.41666015487854924  1.0000
  H   H72       1.0  0.7827403471997982  0.7532121227845255  0.4166757542356193  1.0000
  H   H73       1.0  0.0142503340660198  0.3340385651183482  0.9795852494009978  1.0000
  H   H74       1.0  0.6721610186538384  0.014258173454607061  0.9796107460825492  1.0000
  H   H75       1.0  0.33385800467895166  0.6720810949847691  0.9797394786409156  1.0000
  H   H76       1.0  0.4857440964911959  0.8278365387975911  0.5203890923847395  1.0000
  H   H77       1.0  0.8279206917757804  0.16614128590754276  0.5202597109435771  1.0000
  H   H78       1.0  0.1659622646930003  0.4857481402457395  0.5204153119467492  1.0000
  H   H79       1.0  0.9857492268282542  0.6659612249901842  0.020414665439432083  1.0000
  H   H80       1.0  0.3278396915477159  0.9857411219675288  0.0203890088216311  1.0000
  H   H81       1.0  0.6661415562527252  0.32791921382311545  0.020260309463189664  1.0000
  H   H82       1.0  0.5142548895074909  0.17216297975287653  0.4796117089058142  1.0000
  H   H83       1.0  0.17207886922076907  0.8338585043019505  0.47973986402402596  1.0000
  H   H84       1.0  0.834039019995046  0.5142514263306383  0.47958491599862885  1.0000
  H   H85       1.0  0.05940448673734268  0.2169120852405585  0.9617481578703175  1.0000
  H   H86       1.0  0.761982596363083  0.059487622753557894  0.9617629848820285  1.0000
  H   H87       1.0  0.2168015138159518  0.761958749796463  0.9618653437737379  1.0000
  H   H88       1.0  0.4405138098377321  0.7380151431566447  0.5382376510202106  1.0000
  H   H89       1.0  0.7380425608541187  0.28319834867931354  0.5381343585724068  1.0000
  H   H90       1.0  0.28308880787972157  0.4405945993443155  0.5382517447456505  1.0000
  H   H91       1.0  0.9405956488105712  0.7830874575247793  0.03825167700199471  1.0000
  H   H92       1.0  0.23801753923214614  0.9405139947082406  0.03823668291778389  1.0000
  H   H93       1.0  0.7831986214625386  0.23804131136535753  0.03813538398073031  1.0000
  H   H94       1.0  0.5594851762731494  0.26198593149188554  0.4617627700613481  1.0000
  H   H95       1.0  0.2619575746663187  0.7168022313837739  0.46186556270006907  1.0000
  H   H96       1.0  0.716911327603313  0.5594054620194201  0.46174830326315686  1.0000
  H   H97       1.0  0.053198496350354695  0.1627632833018566  0.900881524131151  1.0000
  H   H98       1.0  0.8832218359870436  0.05320426569244347  0.9008736949583137  1.0000
  H   H99       1.0  0.1627723457054628  0.883184155376313  0.9009493703422321  1.0000
  H   H100      1.0  0.446795894793432  0.6167764305150885  0.59912632234915  1.0000
  H   H101      1.0  0.6168170357556803  0.337226350729985  0.5990518318476177  1.0000
  H   H102      1.0  0.3372384813121697  0.4468006786937623  0.599118098338863  1.0000
  H   H103      1.0  0.9468016392349625  0.8372367781628327  0.09911818400482285  1.0000
  H   H104      1.0  0.11677829959826619  0.9467957957722465  0.09912601317766687  1.0000
  H   H105      1.0  0.8372277897126992  0.11681642458582074  0.09905089080307047  1.0000
  H   H106      1.0  0.5532036660733651  0.38322439689120125  0.4008736788914505  1.0000
  H   H107      1.0  0.3831825251759965  0.6627739580779065  0.4009479562564877  1.0000
  H   H108      1.0  0.6627610795920233  0.5532006674118793  0.4008817761654128  1.0000
  H   H109      1.0  0.19611862118064488  0.26169139300498767  0.7856117492924284  1.0000
  H   H110      1.0  0.756664351919106  0.19611233850204723  0.7856053445297349  1.0000
  H   H111      1.0  0.2615968810285452  0.7565851195133324  0.7857256322691767  1.0000
  H   H112      1.0  0.3038875161150684  0.7433338975921018  0.7143943276862429  1.0000
  H   H113      1.0  0.7434204410173918  0.2383992698397608  0.7142745706133908  1.0000
  H   H114      1.0  0.23830973385771154  0.30388170922178404  0.7143883846237242  1.0000
  H   H115      1.0  0.8038832382633102  0.7383079263291493  0.21438805881199832  1.0000
  H   H116      1.0  0.2433357838432783  0.8038887604623001  0.21439377026075587  1.0000
  H   H117      1.0  0.7384026796337011  0.24341570769104245  0.21427504871709147  1.0000
  H   H118      1.0  0.6961120445746544  0.25666589231452264  0.28560626689985463  1.0000
  H   H119      1.0  0.2565791200165534  0.7616010390690847  0.2857248776178877  1.0000
  H   H120      1.0  0.7616921255213638  0.6961181287107508  0.28561163661719746  1.0000
  H   H121      1.0  0.2035716616383283  0.3151520617743203  0.8461338570301817  1.0000
  H   H122      1.0  0.6352172084362167  0.20355587227481214  0.8461172133032874  1.0000
  H   H123      1.0  0.31505039133653406  0.6351823918917034  0.8462414161633871  1.0000
  H   H124      1.0  0.2964457153600648  0.8647807152636773  0.6538835966930421  1.0000
  H   H125      1.0  0.8648216815324615  0.18494741251724642  0.65375688117048  1.0000
  H   H126      1.0  0.1848495135478956  0.29642798023159866  0.6538667190156601  1.0000
  H   H127      1.0  0.7964284737050348  0.6848474807891094  0.15386665758779125  1.0000
  H   H128      1.0  0.36478235263513165  0.7964449553333851  0.15388210819165954  1.0000
  H   H129      1.0  0.6849485947369444  0.3648181640574748  0.1537591316545033  1.0000
  H   H130      1.0  0.7035532707508096  0.13522035938485305  0.34611682438851676  1.0000
  H   H131      1.0  0.1351784539131771  0.81505213014713  0.3462432935746519  1.0000
  H   H132      1.0  0.8151529205871028  0.7035716104586883  0.34613288238430323  1.0000
  H   H133      1.0  0.343172130361303  0.21845138342854406  0.9782012524292796  1.0000
  H   H134      1.0  0.4601337217977246  0.3432121509050746  0.9781565355994671  1.0000
  H   H135      1.0  0.21844737681951185  0.4601702055727941  0.9781570727540796  1.0000
  H   H136      1.0  0.1567896650252223  0.039866322217001496  0.5218419674873471  1.0000
  H   H137      1.0  0.039832161294697195  0.2815520896711803  0.5218424567632738  1.0000
  H   H138      1.0  0.2815495598013698  0.15682669696145277  0.5218004723183255  1.0000
  H   H139      1.0  0.6568280048797845  0.7815481590339249  0.02179960206151314  1.0000
  H   H140      1.0  0.5398669884412257  0.6567876632164199  0.021843092568382017  1.0000
  H   H141      1.0  0.7815527586261267  0.5398293370915827  0.02184310199105968  1.0000
  H   H142      1.0  0.8432104706623632  0.9601337393486418  0.47815740077579955  1.0000
  H   H143      1.0  0.9601679740486656  0.7184474528922425  0.47815805785469917  1.0000
  H   H144      1.0  0.7184500011303072  0.8431736118464387  0.4781993157857798  1.0000
  C   C1        1.0  0.7779279111290832  0.5012554278519304  0.15025343677089614  1.0000
  C   C2        1.0  0.5706018781867356  0.7778893642235476  0.15021822531404883  1.0000
  C   C3        1.0  0.5012530327212871  0.570487775806406  0.1502630924866608  1.0000
  C   C4        1.0  0.722111559389539  0.9293967030062049  0.3497808373470974  1.0000
  C   C5        1.0  0.9295129737105723  0.9987449230713004  0.34973705398770233  1.0000
  C   C6        1.0  0.9987464177138036  0.7220682886928601  0.3497479020216402  1.0000
  C   C7        1.0  0.2220710749069994  0.4987446093978888  0.849747237783333  1.0000
  C   C8        1.0  0.42939768264265865  0.22211094448339008  0.849781902662883  1.0000
  C   C9        1.0  0.4987482521064308  0.429512309570285  0.8497366688495587  1.0000
  C   C10       1.0  0.27788685223485027  0.07060410048808315  0.6502191106932642  1.0000
  C   C11       1.0  0.07048773649097478  0.0012543723508358043  0.650262700916471  1.0000
  C   C12       1.0  0.0012542922831996995  0.27793100652736774  0.650252532628201  1.0000
  C   C13       1.0  0.8539129209645749  0.46422838700608093  0.11775437912336881  1.0000
  C   C14       1.0  0.5641567381820352  0.8538784909873274  0.1177233439864551  1.0000
  C   C15       1.0  0.4642388860671146  0.5639997798050302  0.1177644916841132  1.0000
  C   C16       1.0  0.646122571988755  0.9358415516779317  0.38227583401875603  1.0000
  C   C17       1.0  0.9360013256229107  0.03575930901776316  0.38223554553958644  1.0000
  C   C18       1.0  0.035770221268123195  0.6460839931736116  0.3822477452286535  1.0000
  C   C19       1.0  0.1460860647822386  0.5357690566460178  0.8822472689853383  1.0000
  C   C20       1.0  0.4358422478914433  0.14612206496185118  0.8822772038314425  1.0000
  C   C21       1.0  0.5357612494907186  0.43600131895741623  0.8822353028520311  1.0000
  C   C22       1.0  0.35387641414960297  0.06415848567284857  0.6177245006626392  1.0000
  C   C23       1.0  0.06399995926967958  0.9642402577605295  0.6177640026601379  1.0000
  C   C24       1.0  0.9642287646931604  0.35391500667750386  0.6177531827982321  1.0000
  C   C25       1.0  0.8712808695885241  0.39958199620891593  0.10160461488557362  1.0000
  C   C26       1.0  0.6275943249240894  0.8712407381645306  0.10155233391664353  1.0000
  C   C27       1.0  0.39962028096583413  0.6274552551044509  0.10160604144576263  1.0000
  C   C28       1.0  0.6287622700754553  0.8724038050990548  0.39844602433570486  1.0000
  C   C29       1.0  0.8725458118939782  0.10037662328927874  0.39839512170456715  1.0000
  C   C30       1.0  0.10041806993413618  0.6287181885862341  0.3983955321710793  1.0000
  C   C31       1.0  0.12871869116607826  0.6004172750993034  0.8983957665640216  1.0000
  C   C32       1.0  0.3724052360075872  0.1287595706433536  0.8984474541874619  1.0000
  C   C33       1.0  0.6003775555584241  0.3725452766298576  0.8983954727903763  1.0000
  C   C34       1.0  0.37123786550986176  0.1275962563656351  0.6015536838002689  1.0000
  C   C35       1.0  0.12745489858691877  0.8996237097334757  0.6016036999812897  1.0000
  C   C36       1.0  0.8995814909601376  0.37128160152230577  0.6016043826693576  1.0000
  C   C37       1.0  0.940522544156728  0.36705471174737886  0.0692880588969871  1.0000
  C   C38       1.0  0.6231591887931103  0.9405140132889828  0.06925260711343377  1.0000
  C   C39       1.0  0.3670312859850283  0.6230605851578161  0.06932339890720128  1.0000
  C   C40       1.0  0.5594896101443823  0.876837136571858  0.4307474709738272  1.0000
  C   C41       1.0  0.8769411589595392  0.1329689843679065  0.4306761235199303  1.0000
  C   C42       1.0  0.13294337539745976  0.5594784139216529  0.4307137100411396  1.0000
  C   C43       1.0  0.059478165840275196  0.6329445834728491  0.9307123757528543  1.0000
  C   C44       1.0  0.3768397973826437  0.05948654276114955  0.9307476008316298  1.0000
  C   C45       1.0  0.6329688496750805  0.3769405137055842  0.9306760557561161  1.0000
  C   C46       1.0  0.4405110999548966  0.12316215874932372  0.5692526238031802  1.0000
  C   C47       1.0  0.12305955159614967  0.8670323860535518  0.5693224446932702  1.0000
  C   C48       1.0  0.8670556107134143  0.4405226607268775  0.5692867110404194  1.0000
  C   C49       1.0  0.9945348124932065  0.3980182341833682  0.0519734437079222  1.0000
  C   C50       1.0  0.5554873570582542  0.9945350678932178  0.0519656220446975  1.0000
  C   C51       1.0  0.3979389896644107  0.5553775041509683  0.05205382945553785  1.0000
  C   C52       1.0  0.505468015781524  0.9445099216823749  0.44803311116127986  1.0000
  C   C53       1.0  0.9446250299740553  0.10206001101929044  0.44794639626184807  1.0000
  C   C54       1.0  0.1019818169064308  0.5054657233368332  0.448027247049815  1.0000
  C   C55       1.0  0.0054653229898278  0.6019818271803672  0.9480266043008854  1.0000
  C   C56       1.0  0.4445116291922984  0.0054665255556189205  0.9480343324277027  1.0000
  C   C57       1.0  0.6020605712023794  0.4446233232553212  0.9479461717850697  1.0000
  C   C58       1.0  0.4945332687019642  0.05548964469209492  0.5519677965297518  1.0000
  C   C59       1.0  0.055375680479364996  0.8979413593012139  0.5520525118241791  1.0000
  C   C60       1.0  0.8980177438206878  0.49453458526914307  0.551973220799951  1.0000
  C   C61       1.0  0.9774112289219372  0.4614302155573571  0.06954801709802892  1.0000
  C   C62       1.0  0.491641363810345  0.9773796755672206  0.069530555354703  1.0000
  C   C63       1.0  0.46139125880984017  0.4915096459592334  0.06958755412048835  1.0000
  C   C64       1.0  0.5226209977674684  0.008356580901711784  0.4304689953613092  1.0000
  C   C65       1.0  0.008492736220233598  0.0386092402169993  0.43041079910728536  1.0000
  C   C66       1.0  0.03856985088073369  0.5225869328199765  0.4304523068847459  1.0000
  C   C67       1.0  0.0225883317952622  0.5385685370515105  0.9304524910878981  1.0000
  C   C68       1.0  0.5083593469025869  0.0226196203596914  0.9304675001853296  1.0000
  C   C69       1.0  0.5386083020294734  0.5084922187448058  0.9304125335202826  1.0000
  C   C70       1.0  0.4773791376506934  0.9916439990604221  0.5695312657840005  1.0000
  C   C71       1.0  0.9915079741957908  0.9613916114041532  0.5695882357150737  1.0000
  C   C72       1.0  0.9614308592185449  0.4774123625012055  0.5695477878922617  1.0000
  C   C73       1.0  0.9082068608734345  0.49408400950771636  0.10201145272328908  1.0000
  C   C74       1.0  0.4957351175109179  0.9081806718860225  0.102004965363541  1.0000
  C   C75       1.0  0.4940784657348942  0.49557359076938234  0.10203676643302359  1.0000
  C   C76       1.0  0.5918218804620492  0.004262825245383908  0.3979950766810205  1.0000
  C   C77       1.0  0.0044290005559731  0.0059188028653452  0.39796297743352926  1.0000
  C   C78       1.0  0.0059158720577202  0.5917908761947502  0.3979894566506132  1.0000
  C   C79       1.0  0.09179155029454479  0.5059147188862883  0.8979900218808862  1.0000
  C   C80       1.0  0.5042650181392714  0.09181887098026945  0.8979945296359373  1.0000
  C   C81       1.0  0.5059205203759872  0.5044274838791551  0.8979636546485352  1.0000
  C   C82       1.0  0.40817882950747725  0.9957375072725939  0.6020054443689843  1.0000
  C   C83       1.0  0.9955722842717378  0.9940812825113383  0.602036783902683  1.0000
  C   C84       1.0  0.9940836886594864  0.4082078764141177  0.6020110515353136  1.0000
  C   C85       1.0  0.0663041327037277  0.3654819147266792  0.015569508483309792  1.0000
  C   C86       1.0  0.5526397026321347  0.06633316749523038  0.015572880619650713  1.0000
  C   C87       1.0  0.36541329304733233  0.5525371867517919  0.015648446430802206  1.0000
  C   C88       1.0  0.4336686313985183  0.9473575890650211  0.4844262413458437  1.0000
  C   C89       1.0  0.9474653386832728  0.13458560234209935  0.48435149547781  1.0000
  C   C90       1.0  0.13451796378578956  0.43369573255229454  0.4844308860355325  1.0000
  C   C91       1.0  0.9336960028067905  0.6345171093392992  0.9844304531253343  1.0000
  C   C92       1.0  0.44736043299057116  0.9336674126688183  0.9844267007799983  1.0000
  C   C93       1.0  0.6345862678469416  0.4474626033567404  0.9843514684096277  1.0000
  C   C94       1.0  0.5663326531498425  0.052641458711050956  0.5155744532086928  1.0000
  C   C95       1.0  0.052534222462867285  0.8654162626648016  0.5156475725444734  1.0000
  C   C96       1.0  0.8654827463882879  0.5663046001675912  0.5155689552688187  1.0000
  C   C97       1.0  0.1341096397542714  0.36756933434076433  0.014203762536148218  1.0000
  C   C98       1.0  0.4841016981737383  0.1341318574776126  0.014183250023542425  1.0000
  C   C99       1.0  0.36754799420747014  0.4840211917442404  0.014217822184470175  1.0000
  C   C100      1.0  0.3658707635718129  0.015895160832272454  0.48581591335155133  1.0000
  C   C101      1.0  0.0159817471072898  0.1324510083929482  0.4857811823993358  1.0000
  C   C102      1.0  0.1324323199163615  0.36588901688431735  0.48579711071374726  1.0000
  C   C103      1.0  0.865889921037727  0.6324304556668139  0.9857964921771154  1.0000
  C   C104      1.0  0.515897862693052  0.8658689699286767  0.9858167512170579  1.0000
  C   C105      1.0  0.6324527161337556  0.5159786224782081  0.9857814661105451  1.0000
  C   C106      1.0  0.6341305208742793  0.9841038868428388  0.5141851210758189  1.0000
  C   C107      1.0  0.9840183887947659  0.867550609371712  0.5142174657819892  1.0000
  C   C108      1.0  0.8675689647068053  0.6341110682904586  0.514203330368133  1.0000
  C   C109      1.0  0.20146987229296798  0.337471181291022  0.9790182014895876  1.0000
  C   C110      1.0  0.4820310655205304  0.20150081883199533  0.9790012298486559  1.0000
  C   C111      1.0  0.3374591233231711  0.4819915567478718  0.9790056607761456  1.0000
  C   C112      1.0  0.2985009866746111  0.017968203217094535  0.5209983294327145  1.0000
  C   C113      1.0  0.018009892363743098  0.16254048005483673  0.5209939673055004  1.0000
  C   C114      1.0  0.16253067509176583  0.2985288562781606  0.5209832318400841  1.0000
  C   C115      1.0  0.7985302629107236  0.662527842472088  0.020982779737536754  1.0000
  C   C116      1.0  0.5179690700647794  0.798499242632694  0.020998478287324887  1.0000
  C   C117      1.0  0.6625410123270115  0.5180079861184195  0.02099383422333286  1.0000
  C   C118      1.0  0.7014991488084233  0.982031858146641  0.47900171857609286  1.0000
  C   C119      1.0  0.9819902432589698  0.8374601001092047  0.4790056140941418  1.0000
  C   C120      1.0  0.8374706093268498  0.7014712286947076  0.4790178889874497  1.0000
  C   C121      1.0  0.20099189119221708  0.30519963523552457  0.9444321558924641  1.0000
  C   C122      1.0  0.5493972016572286  0.2010042479813521  0.9444526543350733  1.0000
  C   C123      1.0  0.3051953777853171  0.5493598745108628  0.9444424211011009  1.0000
  C   C124      1.0  0.29899780700519324  0.9506008576863899  0.5555467280526682  1.0000
  C   C125      1.0  0.950641637235101  0.19480330951358146  0.5555565540001339  1.0000
  C   C126      1.0  0.19480121262593283  0.2990073320953216  0.5555690329800099  1.0000
  C   C127      1.0  0.7990082441511459  0.6947999073279051  0.05556835872550182  1.0000
  C   C128      1.0  0.45060178468568063  0.7989957895713362  0.055547000600661464  1.0000
  C   C129      1.0  0.6948041832486281  0.4506404343979826  0.05555702713017029  1.0000
  C   C130      1.0  0.7010017538242008  0.0493994510205483  0.44445339992426364  1.0000
  C   C131      1.0  0.04935792383623999  0.805197518094616  0.4444427674948058  1.0000
  C   C132      1.0  0.805200071997227  0.7009927530794545  0.44443140810186316  1.0000
  C   C133      1.0  0.13391012878899738  0.30275179001695574  0.9448476842953467  1.0000
  C   C134      1.0  0.6185400074603676  0.13393574183517387  0.9448704604285253  1.0000
  C   C135      1.0  0.30264262586088353  0.6184856811188909  0.9449419753611109  1.0000
  C   C136      1.0  0.3660664556562311  0.8814578120863601  0.5551291563123256  1.0000
  C   C137      1.0  0.881516186839839  0.1973548315657184  0.5550572811999502  1.0000
  C   C138      1.0  0.19724916268635434  0.3660892237903541  0.5551528290537532  1.0000
  C   C139      1.0  0.8660900066192381  0.6972472339480691  0.055152617186116956  1.0000
  C   C140      1.0  0.3814595535087051  0.8660650856720693  0.05512920093924834  1.0000
  C   C141      1.0  0.6973569350707862  0.3815146276889934  0.05505781274299443  1.0000
  C   C142      1.0  0.6339336797245352  0.11854224917641436  0.44487123156930847  1.0000
  C   C143      1.0  0.11848337409183067  0.802645477242166  0.44494250690415516  1.0000
  C   C144      1.0  0.802752696730117  0.6339111328415331  0.44484706545082975  1.0000
  C   C145      1.0  0.0673176279789089  0.3329043527627178  0.9805525064623949  1.0000
  C   C146      1.0  0.6192591385370604  0.06733535101116679  0.9805707862838701  1.0000
  C   C147      1.0  0.3327464622675008  0.6191759650806007  0.9806863982587259  1.0000
  C   C148      1.0  0.4326675327462084  0.8807387015841004  0.5194282540657226  1.0000
  C   C149      1.0  0.8808265133866937  0.16725214847890166  0.5193117198135512  1.0000
  C   C150      1.0  0.16709694982280607  0.43268131346894745  0.5194470941747795  1.0000
  C   C151      1.0  0.9326825076338848  0.6670946714042146  0.019447115273415267  1.0000
  C   C152      1.0  0.38074099722532395  0.9326657479531875  0.019428328506613517  1.0000
  C   C153      1.0  0.6672542479714494  0.38082384904088684  0.019313229909123184  1.0000
  C   C154      1.0  0.5673326025322751  0.11926135957772023  0.48057247368873846  1.0000
  C   C155      1.0  0.11917362268251708  0.8327489507883216  0.48068637535844516  1.0000
  C   C156      1.0  0.8329049097608205  0.5673185246654951  0.48055224732048163  1.0000
  C   C157      1.0  0.13186228095145217  0.27002983257049346  0.9082867534090866  1.0000
  C   C158      1.0  0.689880316889848  0.13191802354020893  0.9082946276542144  1.0000
  C   C159      1.0  0.26991344698107156  0.6898533621325454  0.908395958586084  1.0000
  C   C160      1.0  0.36808284254982476  0.8101176743270317  0.5917058824729934  1.0000
  C   C161      1.0  0.8101499840875588  0.23008327656289404  0.5916038945245745  1.0000
  C   C162      1.0  0.22997133666687117  0.36813744076700783  0.5917142673919001  1.0000
  C   C163      1.0  0.8681378541499639  0.7299691910916623  0.09171456769087165  1.0000
  C   C164      1.0  0.31011866943549643  0.8680846073073385  0.09170507334552265  1.0000
  C   C165      1.0  0.7300849645410494  0.31014744126078864  0.09160432932710443  1.0000
  C   C166      1.0  0.6319161436259364  0.18988288172310064  0.4082943254720701  1.0000
  C   C167      1.0  0.18985072601171987  0.7699160187582877  0.40839620025243295  1.0000
  C   C168      1.0  0.7700310973658514  0.6318621498223256  0.4082856738808899  1.0000
  C   C169      1.0  0.08916294651842797  0.2271524184569742  0.9230557631820487  1.0000
  C   C170      1.0  0.7607001351642777  0.08920964500542544  0.9230612936367848  1.0000
  C   C171      1.0  0.22708236006980798  0.7606610018477937  0.9231657831671427  1.0000
  C   C172      1.0  0.4107898087774088  0.7392996697073856  0.5769386708945987  1.0000
  C   C173      1.0  0.7393416590207451  0.2729148179890616  0.5768345739874546  1.0000
  C   C174      1.0  0.27284823219109455  0.4108372798617168  0.5769439015605116  1.0000
  C   C175      1.0  0.9108377635434479  0.7728463581648555  0.07694445833129042  1.0000
  C   C176      1.0  0.23930057504719565  0.9107912064138192  0.07693842093122778  1.0000
  C   C177      1.0  0.7729172005924382  0.2393398253565877  0.07683489781912559  1.0000
  C   C178      1.0  0.5892091773609494  0.2607003676433949  0.4230616637867967  1.0000
  C   C179      1.0  0.2606584765645649  0.7270852434756353  0.42316513414851886  1.0000
  C   C180      1.0  0.7271519034690073  0.5891638190016835  0.42305555310280585  1.0000
  C   C181      1.0  0.08564895027021889  0.19656194238459798  0.8892890828317447  1.0000
  C   C182      1.0  0.8285699941274911  0.08565778809549582  0.8892815528492903  1.0000
  C   C183      1.0  0.1965589342078218  0.8285225300136574  0.8893719676309998  1.0000
  C   C184      1.0  0.41434186710942805  0.6714287115454312  0.6107182234346666  1.0000
  C   C185      1.0  0.6714809513940522  0.303438826926815  0.6106284797683088  1.0000
  C   C186      1.0  0.3034399452373435  0.41435048039907246  0.6107107882339449  1.0000
  C   C187      1.0  0.9143523344827003  0.8034371055933818  0.1107109319771382  1.0000
  C   C188      1.0  0.1714289921604575  0.914344324052699  0.11071827488677846  1.0000
  C   C189      1.0  0.8034412011080647  0.1714780498475221  0.11062863338713666  1.0000
  C   C190      1.0  0.5856565446172366  0.32857209204981086  0.3892813847328681  1.0000
  C   C191      1.0  0.3285197589097777  0.6965604685962818  0.38937093526304506  1.0000
  C   C192      1.0  0.6965613395254947  0.5856501235760165  0.38928918623876996  1.0000
  C   C193      1.0  0.12385438320661989  0.20897150903969933  0.839383003151802  1.0000
  C   C194      1.0  0.8278597743798244  0.12385124220774904  0.8393789543423436  1.0000
  C   C195      1.0  0.20897330178348736  0.8278204264741192  0.8394680458875141  1.0000
  C   C196      1.0  0.376147334558695  0.6721386619103741  0.6606205085048343  1.0000
  C   C197      1.0  0.6721802159002336  0.29102704051486245  0.6605327918944893  1.0000
  C   C198      1.0  0.2910308041285389  0.3761439862368903  0.6606169987452971  1.0000
  C   C199      1.0  0.8761463267903835  0.7910277861805285  0.16061743149803212  1.0000
  C   C200      1.0  0.17214151038301395  0.8761493617673393  0.16062102013037113  1.0000
  C   C201      1.0  0.7910274081112403  0.17217886864515453  0.16053272863515383  1.0000
  C   C202      1.0  0.6238516519238855  0.32786189444262703  0.3393786798217419  1.0000
  C   C203      1.0  0.32781877048007146  0.7089735157371778  0.33946673630491375  1.0000
  C   C204      1.0  0.7089699060730081  0.6238553091852456  0.3393827561588834  1.0000
  C   C205      1.0  0.1665268163629037  0.251650077391588  0.8242616993090549  1.0000
  C   C206      1.0  0.7576428493924964  0.1665414163259273  0.8242560292623793  1.0000
  C   C207      1.0  0.2515614195865865  0.7575905410462411  0.824366317888497  1.0000
  C   C208      1.0  0.3334592247120368  0.7423540112438759  0.6757441009800118  1.0000
  C   C209      1.0  0.7424126622218097  0.2484360008803392  0.6756341612071992  1.0000
  C   C210      1.0  0.2483514753628882  0.333473054196624  0.6757384614514306  1.0000
  C   C211      1.0  0.833475042978776  0.7483492418415881  0.1757384486681914  1.0000
  C   C212      1.0  0.2423578611158845  0.8334578793990702  0.17574270602331404  1.0000
  C   C213      1.0  0.7484381411779352  0.24241028625909425  0.1756340232249372  1.0000
  C   C214      1.0  0.6665409108358772  0.25764553152146163  0.32425573389229356  1.0000
  C   C215      1.0  0.25758689867246437  0.7515637892282003  0.32436575363323056  1.0000
  C   C216      1.0  0.7516503839787915  0.6665262650365592  0.3242616865258157  1.0000
  C   C217      1.0  0.17104112550501327  0.28122886998234264  0.8584205941009626  1.0000
  C   C218      1.0  0.6893867245326034  0.17104723873203675  0.8584136028456368  1.0000
  C   C219      1.0  0.2811210814781688  0.6893527782917632  0.8585299969845224  1.0000
  C   C220      1.0  0.3289516709751935  0.8106120756283208  0.641587225217421  1.0000
  C   C221      1.0  0.8106498623022986  0.21887661006586254  0.6414691012689673  1.0000
  C   C222      1.0  0.21877180392223744  0.32895901578528725  0.6415790593696824  1.0000
  C   C223      1.0  0.8289578604287939  0.718771167166523  0.14158042032608606  1.0000
  C   C224      1.0  0.3106139857437497  0.82895309408881  0.14158589858588042  1.0000
  C   C225      1.0  0.7188784793512325  0.3106475304151745  0.14147013099241687  1.0000
  C   C226      1.0  0.6710473150982847  0.18938848032085084  0.35841332260046943  1.0000
  C   C227      1.0  0.18935027324561554  0.781122932699475  0.3585307336033381  1.0000
  C   C228      1.0  0.7812289065586597  0.6710413172374675  0.3584197623161811  1.0000
  C   C229      1.0  0.27282116069443413  0.3391137748490678  0.9785038980818612  1.0000
  C   C230      1.0  0.4095301470596198  0.2728359647459869  0.9784950086145513  1.0000
  C   C231      1.0  0.3390924763182213  0.4095261386668341  0.9784959237901633  1.0000
  C   C232      1.0  0.22716683401213797  0.09046969966580322  0.5215039634364231  1.0000
  C   C233      1.0  0.09047565809672879  0.16090677239605367  0.5215032958746589  1.0000
  C   C234      1.0  0.1608871827379232  0.22717850209586743  0.5214967808067499  1.0000
  C   C235      1.0  0.727179549265166  0.6608850016718083  0.02149666330430484  1.0000
  C   C236      1.0  0.5904705632167263  0.7271643680748597  0.021504492816966023  1.0000
  C   C237      1.0  0.660907659229693  0.5904734040985034  0.02150391108214226  1.0000
  C   C238      1.0  0.7728333013312252  0.9095298428976194  0.4784965511815427  1.0000
  C   C239      1.0  0.9095239026952694  0.8390930176115249  0.4784969588386048  1.0000
  C   C240      1.0  0.8391123778869201  0.7728218064091551  0.47850402691584276  1.0000
  C   C241      1.0  0.34191469899371185  0.2720044514642126  0.9784214052555666  1.0000
  C   C242      1.0  0.40761828557823776  0.34193664732245577  0.9784003108485136  1.0000
  C   C243      1.0  0.27198787912325867  0.4076370814370307  0.9784090828775405  1.0000
  C   C244      1.0  0.158066489888391  0.0923815435561863  0.5215972908955279  1.0000
  C   C245      1.0  0.09236319326208788  0.22801185953658631  0.5215901110078178  1.0000
  C   C246      1.0  0.22799705432038306  0.1580849237347621  0.5215786804309771  1.0000
  C   C247      1.0  0.6580865857218043  0.7279940778144155  0.02157873628964764  1.0000
  C   C248      1.0  0.5923824249026595  0.6580636857002985  0.021598510837350166  1.0000
  C   C249      1.0  0.7280128310782954  0.592362213985105  0.021590672026640185  1.0000
  C   C250      1.0  0.8419330711455614  0.907618765352659  0.4784021573357504  1.0000
  C   C251      1.0  0.9076363673253594  0.7719879302690846  0.47841082345110647  1.0000
  C   C252      1.0  0.7720025063693395  0.8419148661718626  0.47842191415511337  1.0000
  C   C253      1.0  0.11711884719827738  0.17628923483953685  0.8042760787602673  1.0000
  C   C254      1.0  0.9023624183915329  0.11707850543268  0.8042368551444667  1.0000
  C   C255      1.0  0.17640402101729788  0.9023359371402079  0.804314249112103  1.0000
  C   C256      1.0  0.38292496098640066  0.5976349112703191  0.6957619461474636  1.0000
  C   C257      1.0  0.5976671879301563  0.3235926048936548  0.6956876713301907  1.0000
  C   C258      1.0  0.32371261060829676  0.38288074716053455  0.6957233736995433  1.0000
  C   C259      1.0  0.8828818629383973  0.8237105791809968  0.19572388928041554  1.0000
  C   C260      1.0  0.0976377172036962  0.8829231120291188  0.19576281265534579  1.0000
  C   C261      1.0  0.8235966890171011  0.0976638767793717  0.19568605880139955  1.0000
  C   C262      1.0  0.6170751746363052  0.4023656688937222  0.3042376352521855  1.0000
  C   C263      1.0  0.40233237275956657  0.6764071850129699  0.3043129232559067  1.0000
  C   C264      1.0  0.6762875251166917  0.6171198331044678  0.3042758678272719  1.0000
  O   O1        1.0  0.7291749898628764  0.4748348894369131  0.15877701667476166  1.0000
  O   O2        1.0  0.6372293476568132  0.7291778277279377  0.15879946799994824  1.0000
  O   O3        1.0  0.47480535323574447  0.6371244170034274  0.15881340320981252  1.0000
  O   O4        1.0  0.770823831851601  0.8627682391373171  0.34120022801035077  1.0000
  O   O5        1.0  0.8628748847877217  0.025190309158397026  0.3411897917506792  1.0000
  O   O6        1.0  0.0251661133446746  0.7708220478420246  0.34122428106044106  1.0000
  O   O7        1.0  0.2708239962754816  0.5251651479138673  0.8412233180066266  1.0000
  O   O8        1.0  0.36277078782622846  0.27082223363579777  0.8412005800088592  1.0000
  O   O9        1.0  0.5251953566314995  0.3628759154135963  0.8411874577130191  1.0000
  O   O10       1.0  0.2291751543516369  0.1372312796150652  0.6587998935345494  1.0000
  O   O11       1.0  0.13712525048084956  0.9748081960063217  0.6588109763399428  1.0000
  O   O12       1.0  0.9748345968568796  0.22917724758011143  0.6587754738437398  1.0000
  O   O13       1.0  0.13976635697802206  0.19845957931302394  0.7576010121477876  1.0000
  O   O14       1.0  0.9041514579175497  0.1396649146814893  0.7575734131558463  1.0000
  O   O15       1.0  0.19856484525090679  0.9041197413663868  0.7576513790859348  1.0000
  O   O16       1.0  0.3603400599201477  0.5958459078497071  0.7424263898641568  1.0000
  O   O17       1.0  0.5958850439171639  0.30143267969906873  0.7423492171048662  1.0000
  O   O18       1.0  0.3015414690345678  0.3602340753116735  0.7423987697075843  1.0000
  O   O19       1.0  0.8602343530563771  0.8015402346065559  0.24239929576572186  1.0000
  O   O20       1.0  0.09584867765020279  0.860337740078059  0.24242634104413693  1.0000
  O   O21       1.0  0.801435290194732  0.09587980129798987  0.24234879565920403  1.0000
  O   O22       1.0  0.6396600756002826  0.40415467221338025  0.2575735314083189  1.0000
  O   O23       1.0  0.4041150916681459  0.6985673817656206  0.25765049103110726  1.0000
  O   O24       1.0  0.6984586666255409  0.639767023551727  0.257600684955733  1.0000
  O   O25       1.0  0.5915552643856827  0.5915796241351642  0.22522112769395616  1.0000
  O   O26       1.0  0.9084226322173663  0.9084419809447158  0.27477875854302153  1.0000
  O   O27       1.0  0.40844487109735883  0.40842043722857124  0.7747789203148442  1.0000
  O   O28       1.0  0.09157750329315206  0.09155704312127003  0.7252212030656151  1.0000
  O   O29       1.0  0.7668445899416341  0.5566512699811952  0.16675401523848174  1.0000
  O   O30       1.0  0.5098264635329243  0.766748061610926  0.16664255321615673  1.0000
  O   O31       1.0  0.5566883901457658  0.5096980603777227  0.16673479162936639  1.0000
  O   O32       1.0  0.7332538788096626  0.9901706233162176  0.33335633338505477  1.0000
  O   O33       1.0  0.9903034384784132  0.9433116531515046  0.33326353200819625  1.0000
  O   O34       1.0  0.9433519390010402  0.7331511024599636  0.33324581820220806  1.0000
  O   O35       1.0  0.2331543962341199  0.4433492860689369  0.833246192706575  1.0000
  O   O36       1.0  0.4901736719875131  0.23325251845216147  0.8333573680563189  1.0000
  O   O37       1.0  0.4433117454021484  0.4903014823876148  0.8332650432429388  1.0000
  O   O38       1.0  0.26674625666345253  0.009827882050409237  0.6666437549599137  1.0000
  O   O39       1.0  0.009697271620865396  0.05668764216967052  0.6667365627688112  1.0000
  O   O40       1.0  0.05664877120051409  0.26684819296217205  0.6667539367019727  1.0000
  O   O41       1.0  0.08793895069873507  0.1280689450222141  0.8243464626012622  1.0000
  O   O42       1.0  0.9597147721576603  0.0879883351851234  0.8242669266831726  1.0000
  O   O43       1.0  0.12821697927534356  0.9597325712038941  0.8243308064715933  1.0000
  O   O44       1.0  0.4120136297282571  0.540283067295853  0.6757323747077775  1.0000
  O   O45       1.0  0.5402705565454937  0.3717776774796206  0.6756706751253319  1.0000
  O   O46       1.0  0.37193229889368234  0.4120606013163481  0.6756531291031324  1.0000
  O   O47       1.0  0.9120611848491718  0.8719305977431233  0.17565337227105002  1.0000
  O   O48       1.0  0.04028593797902149  0.9120114788354101  0.17573304135750323  1.0000
  O   O49       1.0  0.871783156245094  0.04026800885919365  0.1756691148008826  1.0000
  O   O50       1.0  0.5879865057547773  0.4597169940678828  0.3242676733010299  1.0000
  O   O51       1.0  0.45972900438617603  0.6282226313282707  0.3243291129787733  1.0000
  O   O52       1.0  0.6280672620105108  0.5879407447892931  0.3243467454011436  1.0000
