data_image0
_chemical_formula_structural       Cd12Ag8H200C240S32N8
_chemical_formula_sum              "Cd12 Ag8 H200 C240 S32 N8"
_cell_length_a       18.176623707045724
_cell_length_b       18.176257048134307
_cell_length_c       25.679039702501452
_cell_angle_alpha    110.72333237539799
_cell_angle_beta     110.72015304816131
_cell_angle_gamma    90.01004823514674

_space_group_name_H-M_alt    "P 1"
_space_group_IT_number       1

loop_
  _space_group_symop_operation_xyz
  'x, y, z'

loop_
  _atom_site_type_symbol
  _atom_site_label
  _atom_site_symmetry_multiplicity
  _atom_site_fract_x
  _atom_site_fract_y
  _atom_site_fract_z
  _atom_site_occupancy
  Cd  Cd1       1.0  0.3941608426822825  0.7019895297452338  0.13134506100200843  1.0000
  Cd  Cd2       1.0  0.7373082007106575  0.9295257496120402  0.1313968441671491  1.0000
  Cd  Cd3       1.0  0.42951366681115366  0.8941032676443187  0.6313833000774594  1.0000
  Cd  Cd4       1.0  0.20180759313176097  0.23715874890955044  0.6312716781352421  1.0000
  Cd  Cd5       1.0  0.6058450046078007  0.2980164585725121  0.8686589092679287  1.0000
  Cd  Cd6       1.0  0.2626907763334357  0.07046398367830882  0.8685978195802377  1.0000
  Cd  Cd7       1.0  0.570486265416264  0.10589915518048094  0.3686147138845969  1.0000
  Cd  Cd8       1.0  0.7981871118892556  0.7628374592762271  0.36872704601466216  1.0000
  Cd  Cd9       1.0  0.5541840523429328  0.8043669629776957  0.10843952038708693  1.0000
  Cd  Cd10      1.0  0.30427976162734177  0.05423294601531134  0.6084576435430123  1.0000
  Cd  Cd11      1.0  0.4458198241434559  0.19563816313671373  0.8915606732358655  1.0000
  Cd  Cd12      1.0  0.6957145831106003  0.9457688070637643  0.3915425093803647  1.0000
  Ag  Ag1       1.0  0.7821520812445328  0.8452338432595498  0.24899633431885354  1.0000
  Ag  Ag2       1.0  0.4667311580749711  0.9039948035989129  0.2491072315146425  1.0000
  Ag  Ag3       1.0  0.4037670122719632  0.2822611877563332  0.7488583345880357  1.0000
  Ag  Ag4       1.0  0.3451962264111401  0.9666405758229217  0.7490770679423876  1.0000
  Ag  Ag5       1.0  0.21784768683625075  0.15476042070725532  0.7510140595646675  1.0000
  Ag  Ag6       1.0  0.5332719179295468  0.09599439274504112  0.7508957415404894  1.0000
  Ag  Ag7       1.0  0.5962186279563823  0.7177324554627234  0.2511342480953189  1.0000
  Ag  Ag8       1.0  0.6547956501797002  0.03335298050032523  0.2509289632156282  1.0000
  H   H1        1.0  0.22071000373076535  0.667403389259519  0.013516020619029172  1.0000
  H   H2        1.0  0.7928181622712954  0.8463074640592582  0.013600868933934902  1.0000
  H   H3        1.0  0.34626834987091126  0.720659503355009  0.5135404244523585  1.0000
  H   H4        1.0  0.16688073342983498  0.2923956265342298  0.5132871142954941  1.0000
  H   H5        1.0  0.7792957747087143  0.332601837153959  0.9864866856681545  1.0000
  H   H6        1.0  0.2071784891186963  0.15369530580059632  0.9864004120431886  1.0000
  H   H7        1.0  0.6537398281855004  0.2793474800914027  0.48646051665426177  1.0000
  H   H8        1.0  0.8331157591166728  0.7076009422335335  0.48671579933692755  1.0000
  H   H9        1.0  0.08313665120794402  0.6003908232616837  0.9759059303084073  1.0000
  H   H10       1.0  0.8927123735258745  0.875681889023028  0.9759088403330126  1.0000
  H   H11       1.0  0.3756967767347987  0.5831004003584469  0.47591920085245937  1.0000
  H   H12       1.0  0.09967114094771286  0.3921035917215078  0.475471062229559  1.0000
  H   H13       1.0  0.9168689987756834  0.3996147285435754  0.02409485451942572  1.0000
  H   H14       1.0  0.10727863969430732  0.12432882540607443  0.024089151598161607  1.0000
  H   H15       1.0  0.6243051215134302  0.4169047989788411  0.5240795979851001  1.0000
  H   H16       1.0  0.9003293229440529  0.607890959748076  0.5245298772504299  1.0000
  H   H17       1.0  0.16497047614411292  0.50081493969563  0.11346926185228773  1.0000
  H   H18       1.0  0.9486330423565335  0.1128373834467525  0.11348093475392321  1.0000
  H   H19       1.0  0.6129426744037617  0.6650625473393676  0.613352205823695  1.0000
  H   H20       1.0  0.0006057279897861272  0.44840023635317294  0.6133962765166106  1.0000
  H   H21       1.0  0.835030105476598  0.49919059856269854  0.8865306005080955  1.0000
  H   H22       1.0  0.05135286914109125  0.8871714898872297  0.8865196854207086  1.0000
  H   H23       1.0  0.3870552417633988  0.33493435765065277  0.38665034932923  1.0000
  H   H24       1.0  0.9993899837355752  0.5515982413085113  0.3866028638543996  1.0000
  H   H25       1.0  0.30112749228977975  0.57101509170014  0.14421005184850347  1.0000
  H   H26       1.0  0.843164106411443  0.07342305046653055  0.14425989043828474  1.0000
  H   H27       1.0  0.5733914714564889  0.8011582828461528  0.64417384799372  1.0000
  H   H28       1.0  0.07087628945755856  0.3430714172908154  0.6442083150874112  1.0000
  H   H29       1.0  0.6988778144110412  0.4289912409538773  0.8557957634341735  1.0000
  H   H30       1.0  0.15682850956557823  0.9265790604780761  0.8557450924800138  1.0000
  H   H31       1.0  0.42661110656375456  0.1988349345825711  0.3558280258693927  1.0000
  H   H32       1.0  0.9291148396717902  0.6569258754745493  0.3557903920982852  1.0000
  H   H33       1.0  0.029254691972219894  0.46918218027796865  0.051455720783188504  1.0000
  H   H34       1.0  0.022151946505850596  0.08239075443830758  0.051371375026001  1.0000
  H   H35       1.0  0.5824053637711443  0.5292064282180106  0.5513017356557697  1.0000
  H   H36       1.0  0.968687334818071  0.5217295080404797  0.5511777469459389  1.0000
  H   H37       1.0  0.9707507029105997  0.5308268069373554  0.9485442094937043  1.0000
  H   H38       1.0  0.9778341249963771  0.9176168364255733  0.948624627529327  1.0000
  H   H39       1.0  0.4175942355799335  0.47079114109366316  0.44869893030326585  1.0000
  H   H40       1.0  0.03130929627032941  0.47826677879224627  0.44881933265114077  1.0000
  H   H41       1.0  0.3621063683239285  0.838265619533054  0.07424879529520466  1.0000
  H   H42       1.0  0.7120748155166722  0.7360356674513471  0.07420814499311489  1.0000
  H   H43       1.0  0.2361136296094627  0.8620484406613754  0.5742023327554335  1.0000
  H   H44       1.0  0.3383617609036164  0.2119346589717139  0.5743314262352754  1.0000
  H   H45       1.0  0.6379005956356422  0.16173861446821294  0.9257562996428987  1.0000
  H   H46       1.0  0.2879235953423135  0.2639675932082071  0.9257901289112739  1.0000
  H   H47       1.0  0.763891227656103  0.1379561919545509  0.42579944593792607  1.0000
  H   H48       1.0  0.6616382449572953  0.788066611448187  0.4256708434810151  1.0000
  H   H49       1.0  0.24260615966620952  0.878655595556488  0.014429159436126318  1.0000
  H   H50       1.0  0.7717499610105919  0.6358683119654673  0.014369678276814558  1.0000
  H   H51       1.0  0.1359376926061771  0.7425374193960865  0.5143111760925194  1.0000
  H   H52       1.0  0.378871419250828  0.27160784102765956  0.5145517493517175  1.0000
  H   H53       1.0  0.7574033705086759  0.12134998332496146  0.9855755328413309  1.0000
  H   H54       1.0  0.2282470262277414  0.3641346124718368  0.9856289541070711  1.0000
  H   H55       1.0  0.8640664315465614  0.2574652067344659  0.48569225394297894  1.0000
  H   H56       1.0  0.6211312124306546  0.7283936869763752  0.4854507751805316  1.0000
  H   H57       1.0  0.16397147437874074  0.7904097541387503  0.9075052523744277  1.0000
  H   H58       1.0  0.7434737274582659  0.617209434998891  0.9074607758246743  1.0000
  H   H59       1.0  0.11722953171254606  0.6640826897501882  0.40735147785199644  1.0000
  H   H60       1.0  0.29069290764022776  0.2434577270126398  0.4076652180789822  1.0000
  H   H61       1.0  0.8360385630257666  0.20959365285823142  0.0925011456011901  1.0000
  H   H62       1.0  0.2565243198163217  0.3827881234822996  0.0925383271545073  1.0000
  H   H63       1.0  0.8827738164019364  0.33591993096512607  0.5926511706935784  1.0000
  H   H64       1.0  0.7093122932285708  0.756540446935894  0.592336907196362  1.0000
  H   H65       1.0  0.20989254129390386  0.6630664238071732  0.8614444456541863  1.0000
  H   H66       1.0  0.6514862426687955  0.6985251900088442  0.8614281358777021  1.0000
  H   H67       1.0  0.19857218814325248  0.7101995998907  0.36138705157955536  1.0000
  H   H68       1.0  0.1633015257124484  0.15150528236411992  0.36154085570491656  1.0000
  H   H69       1.0  0.7901104635377649  0.33693697775690623  0.1385632333462254  1.0000
  H   H70       1.0  0.34850973902631915  0.3014679813903527  0.1385670953210507  1.0000
  H   H71       1.0  0.8014276129767451  0.28980216944292186  0.6386144145562369  1.0000
  H   H72       1.0  0.8367051062114753  0.8484922923804632  0.6384585292293182  1.0000
  H   H73       1.0  0.33129823884247855  0.6234057777181191  0.9209374269417624  1.0000
  H   H74       1.0  0.5896971626617925  0.7977684230449711  0.920979550430566  1.0000
  H   H75       1.0  0.297823794393608  0.8315161948032284  0.42100431890310125  1.0000
  H   H76       1.0  0.12347028477189782  0.08962039034712181  0.42099795960569963  1.0000
  H   H77       1.0  0.6687045809001048  0.3765943375980997  0.07906767652644223  1.0000
  H   H78       1.0  0.4102981163081267  0.20222926835271696  0.0790137779956765  1.0000
  H   H79       1.0  0.7021760782285681  0.1684873153176057  0.5789930375823574  1.0000
  H   H80       1.0  0.876532071507178  0.9103780900398564  0.5789995089955583  1.0000
  H   H81       1.0  0.7968489590033341  0.700877372315034  0.16938478474903454  1.0000
  H   H82       1.0  0.37241432031432703  0.9689380269848088  0.16944549679727325  1.0000
  H   H83       1.0  0.46890628103930254  0.2969495624118679  0.6692721902892701  1.0000
  H   H84       1.0  0.20097043652377522  0.8723615405710065  0.6694175841176746  1.0000
  H   H85       1.0  0.20314819302249973  0.2991223553430018  0.8306122217870211  1.0000
  H   H86       1.0  0.62759001782468  0.03106594943232476  0.8305593433248647  1.0000
  H   H87       1.0  0.5310921542544021  0.7030479987769382  0.33072730343487683  1.0000
  H   H88       1.0  0.7990282816068017  0.1276381328086488  0.3305845836758579  1.0000
  H   H89       1.0  0.8258246711642697  0.5751282120064264  0.10588608388248841  1.0000
  H   H90       1.0  0.27990227897820563  0.031218328104522214  0.1059944229986414  1.0000
  H   H91       1.0  0.5310762937227976  0.32585291806428524  0.605661384882545  1.0000
  H   H92       1.0  0.07525665999268243  0.7797512055663917  0.6059610152811673  1.0000
  H   H93       1.0  0.1741717644285644  0.4248704229403301  0.8941107986402488  1.0000
  H   H94       1.0  0.7200999283524964  0.968786068579384  0.8940112580958228  1.0000
  H   H95       1.0  0.4689195446475267  0.6741424495791081  0.39433668858006854  1.0000
  H   H96       1.0  0.9247421344229708  0.22024829429131645  0.3940400346335124  1.0000
  H   H97       1.0  0.7165063093552887  0.4617041626814072  0.03731878987749577  1.0000
  H   H98       1.0  0.3204622406669912  0.07575681471586654  0.03720540989372979  1.0000
  H   H99       1.0  0.5756029711597532  0.21640282938496117  0.5369593651918124  1.0000
  H   H100      1.0  0.9617691046574917  0.82044734374329  0.5373832811369611  1.0000
  H   H101      1.0  0.28348834530583367  0.538294982000714  0.9626798833019521  1.0000
  H   H102      1.0  0.6795395220113463  0.9242439676207824  0.9627992263829059  1.0000
  H   H103      1.0  0.4243919645273522  0.7835956428614852  0.4630389936892741  1.0000
  H   H104      1.0  0.038229842328299006  0.17955180907052443  0.46261553302001357  1.0000
  H   H105      1.0  0.5794354578562775  0.4747859967395983  0.035436500752069756  1.0000
  H   H106      1.0  0.45558304247968817  0.06066715748172412  0.03517614170309712  1.0000
  H   H107      1.0  0.5606808374985518  0.07937721581608771  0.5351579234339781  1.0000
  H   H108      1.0  0.9747272868918202  0.9556298740944342  0.5354915238423387  1.0000
  H   H109      1.0  0.42055983695277627  0.5252144141757498  0.9645634143195495  1.0000
  H   H110      1.0  0.5444166516471752  0.9393339367086071  0.9648246193893755  1.0000
  H   H111      1.0  0.43931801173945206  0.920623111054738  0.464840792185818  1.0000
  H   H112      1.0  0.025273007429547155  0.04436978846358391  0.4645080497139845  1.0000
  H   H113      1.0  0.5505181964814624  0.599909932882838  0.09921932150933803  1.0000
  H   H114      1.0  0.5483707933772948  0.9993999492720391  0.09899557185750037  1.0000
  H   H115      1.0  0.49950146200028905  0.05057302260568973  0.5990811481138252  1.0000
  H   H116      1.0  0.09977379280589094  0.048461525437396326  0.5992664487913189  1.0000
  H   H117      1.0  0.44948012141263405  0.40009258752456844  0.9007818456293537  1.0000
  H   H118      1.0  0.4516347236880236  0.0006021644155325422  0.9010056767763218  1.0000
  H   H119      1.0  0.5005015055295345  0.9494286599757945  0.40091872782517873  1.0000
  H   H120      1.0  0.9002261731016077  0.9515370471169577  0.40073339149665094  1.0000
  H   H121      1.0  0.9735222248544987  0.8457903035654369  0.14018157102119488  1.0000
  H   H122      1.0  0.166703201777743  0.7940091281008392  0.1400690640118327  1.0000
  H   H123      1.0  0.29374396184786633  0.4733993737641385  0.640000743670811  1.0000
  H   H124      1.0  0.3460646069877172  0.6666357866639316  0.6400359200546007  1.0000
  H   H125      1.0  0.026466180706499517  0.15420790567280562  0.8598167828113645  1.0000
  H   H126      1.0  0.8333028791504447  0.20599442534190626  0.8599345443930205  1.0000
  H   H127      1.0  0.7062495454356962  0.5266006765692168  0.35999498191829826  1.0000
  H   H128      1.0  0.6539386156429288  0.33336246050748036  0.35996481043535783  1.0000
  H   H129      1.0  0.099918989634709  0.9382412342292881  0.183814170790157  1.0000
  H   H130      1.0  0.0837121314323355  0.7453322377144713  0.18364076139519633  1.0000
  H   H131      1.0  0.2450269075309635  0.5998529148619127  0.6837029757579458  1.0000
  H   H132      1.0  0.4384530996300741  0.5837528551665302  0.6836386581187669  1.0000
  H   H133      1.0  0.9000733854606651  0.06175217308425833  0.8161792205222228  1.0000
  H   H134      1.0  0.9162901381551904  0.2546720505563442  0.8163602035427858  1.0000
  H   H135      1.0  0.7549738174145303  0.4001504271522194  0.3162940443385764  1.0000
  H   H136      1.0  0.5615510915623787  0.4162477482417728  0.31636304753173056  1.0000
  H   H137      1.0  0.12283079934251623  0.06476927278968962  0.270813074660211  1.0000
  H   H138      1.0  0.14767513411481298  0.7060248052632402  0.2707914103297497  1.0000
  H   H139      1.0  0.20588092092560115  0.622886398073362  0.7709233295124207  1.0000
  H   H140      1.0  0.5648233236890762  0.6478785152153465  0.7708842787305985  1.0000
  H   H141      1.0  0.8771702673953357  0.9352248259305257  0.7291813036505418  1.0000
  H   H142      1.0  0.8523237076887327  0.2939764570338  0.7292096871516522  1.0000
  H   H143      1.0  0.794123855271998  0.3771203223736706  0.22907657528831749  1.0000
  H   H144      1.0  0.43518105375358823  0.3521178908786169  0.2291170174880932  1.0000
  H   H145      1.0  0.017724737776966013  0.09848072274536432  0.3147064356475654  1.0000
  H   H146      1.0  0.29665070958677114  0.7160537750063012  0.3147280316802962  1.0000
  H   H147      1.0  0.2162027773720965  0.5178035311348597  0.8148434270430586  1.0000
  H   H148      1.0  0.5984998140467325  0.796873210807995  0.8148444380286152  1.0000
  H   H149      1.0  0.9822813395294503  0.9015172614443475  0.6852911960217939  1.0000
  H   H150      1.0  0.7033497894755243  0.2839453886379886  0.6852723454565252  1.0000
  H   H151      1.0  0.7837935938325912  0.4821981054171047  0.18514980623159255  1.0000
  H   H152      1.0  0.4015083884443981  0.20312807316766884  0.18515772289777027  1.0000
  H   H153      1.0  0.8939687599523933  0.00541562460843896  0.27247937624850493  1.0000
  H   H154      1.0  0.37833930690584333  0.7666584368822386  0.27249143322532626  1.0000
  H   H155      1.0  0.26681530057135916  0.39398341975093143  0.772476884559609  1.0000
  H   H156      1.0  0.5055860438972742  0.878426442630982  0.7725288151888421  1.0000
  H   H157      1.0  0.10603409496071234  0.9945891028824863  0.727525164876532  1.0000
  H   H158      1.0  0.6216641297110712  0.23334116057575477  0.7275107073512787  1.0000
  H   H159      1.0  0.7331717862308051  0.6060180216004555  0.22751416739121308  1.0000
  H   H160      1.0  0.4944177759558741  0.1215750718437931  0.22747072436123258  1.0000
  H   H161      1.0  0.9725834589785265  0.8182948871784888  0.2624645103195816  1.0000
  H   H162      1.0  0.2898039048401415  0.944319504545554  0.2625209210263861  1.0000
  H   H163      1.0  0.4442212025945338  0.47250352275460733  0.7626040385245008  1.0000
  H   H164      1.0  0.31836156984991953  0.7898756404814126  0.7625176092076346  1.0000
  H   H165      1.0  0.02742010725535959  0.18169690132553742  0.7375365667523541  1.0000
  H   H166      1.0  0.710196797152193  0.05567637555849815  0.7374772713231865  1.0000
  H   H167      1.0  0.5557890785341185  0.5274974928241107  0.23739424209135507  1.0000
  H   H168      1.0  0.6816367762915901  0.21011467577601192  0.2374764191537224  1.0000
  H   H169      1.0  0.10048764442982625  0.9081345272766228  0.31805895120155014  1.0000
  H   H170      1.0  0.21774517569348725  0.9099937391123804  0.3182414641333012  1.0000
  H   H171      1.0  0.4100930983261435  0.600358978939127  0.8184110363736182  1.0000
  H   H172      1.0  0.40834057897873777  0.717806567176254  0.8182607480582506  1.0000
  H   H173      1.0  0.8995130593733904  0.09186413745394625  0.6819422295157694  1.0000
  H   H174      1.0  0.7822480598094401  0.09000883285695242  0.6817551822603108  1.0000
  H   H175      1.0  0.5899175586042844  0.3996448890825874  0.18158702507732014  1.0000
  H   H176      1.0  0.5916614396411076  0.28218897400675763  0.18173638076849127  1.0000
  H   H177      1.0  0.1615681186678586  0.9564467062157008  0.4306306318110061  1.0000
  H   H178      1.0  0.26926782885863076  0.9744406804367642  0.43081079041039055  1.0000
  H   H179      1.0  0.4746765943466968  0.6613231212852428  0.9309549661814673  1.0000
  H   H180      1.0  0.45636171449545776  0.7693178768986259  0.9307990315309597  1.0000
  H   H181      1.0  0.8384288918440744  0.04355800231304843  0.5693722053566574  1.0000
  H   H182      1.0  0.7307260467922275  0.025563157765795163  0.5691870978753998  1.0000
  H   H183      1.0  0.5253306944049854  0.3386766334666619  0.06904388528949569  1.0000
  H   H184      1.0  0.5436377286637181  0.2306744702039083  0.0691978934502799  1.0000
  H   H185      1.0  0.0938120904134864  0.912107728172231  0.48511044002786013  1.0000
  H   H186      1.0  0.3913773900162454  0.07340250967580181  0.4851633020750939  1.0000
  H   H187      1.0  0.5736714446247931  0.5935446591028963  0.9852407208907794  1.0000
  H   H188      1.0  0.4117457043377966  0.8914001530361376  0.9851636068454114  1.0000
  H   H189      1.0  0.9061821473313288  0.08789334976354721  0.5148890078521973  1.0000
  H   H190      1.0  0.6086211689504138  0.9265966404303897  0.5148351213369153  1.0000
  H   H191      1.0  0.4263324926279636  0.40645189615327854  0.014757145244750778  1.0000
  H   H192      1.0  0.5882488966620869  0.10859068107067324  0.014834415664907365  1.0000
  H   H193      1.0  0.9654365604435854  0.8240788299058296  0.4300668476877688  1.0000
  H   H194      1.0  0.46461671898151735  0.10631596125385565  0.43001291431849614  1.0000
  H   H195      1.0  0.6065885749555092  0.46522502552904405  0.9299967966983829  1.0000
  H   H196      1.0  0.3236353240632682  0.9645664204753714  0.9299909294237951  1.0000
  H   H197      1.0  0.034560936996378216  0.17591722371133758  0.5699334937980112  1.0000
  H   H198      1.0  0.5353877943514648  0.8936791840221191  0.5699879214979476  1.0000
  H   H199      1.0  0.39341329109419826  0.5347708626978617  0.07000256788607122  1.0000
  H   H200      1.0  0.6763582302788506  0.03541944628998557  0.07000424743707612  1.0000
  C   C1        1.0  0.20600698505330675  0.6288467391012915  0.03385263160388517  1.0000
  C   C2        1.0  0.8278758384441359  0.9051804150433256  0.033917972719251566  1.0000
  C   C3        1.0  0.40515571405893513  0.7059521120290457  0.5338640215094231  1.0000
  C   C4        1.0  0.12840925686871438  0.327517770952916  0.5336502105503699  1.0000
  C   C5        1.0  0.7940000533804504  0.37115453675151855  0.9661483570876115  1.0000
  C   C6        1.0  0.17211619666976924  0.09482502019064751  0.9660810487466521  1.0000
  C   C7        1.0  0.5948501769972623  0.29405006947499873  0.4661340195917277  1.0000
  C   C8        1.0  0.8715844125507671  0.6724781037182268  0.4663492628239894  1.0000
  C   C9        1.0  0.12898170716174923  0.591332670545242  0.01324632875274291  1.0000
  C   C10       1.0  0.8842575375317736  0.922073449070659  0.013279762809212076  1.0000
  C   C11       1.0  0.42210034476197916  0.62897130459816  0.5132596878208204  1.0000
  C   C12       1.0  0.0907701373046025  0.3837827740834571  0.5129396565914989  1.0000
  C   C13       1.0  0.8710216147071321  0.4086728650143031  0.9867521116053198  1.0000
  C   C14       1.0  0.11573720149864636  0.07793485485201053  0.9867213839615446  1.0000
  C   C15       1.0  0.5779036750491997  0.3710316252720532  0.48673766353827125  1.0000
  C   C16       1.0  0.9092262556832295  0.6162121841148078  0.4870601701359972  1.0000
  C   C17       1.0  0.11153488844047388  0.5431582661888186  0.04119560917871468  1.0000
  C   C18       1.0  0.9296761321096055  0.998177524962713  0.04121491896034244  1.0000
  C   C19       1.0  0.49823712067897913  0.6115627073375195  0.541158054514085  1.0000
  C   C20       1.0  0.04276992373126381  0.4293243113207483  0.5409751681995587  1.0000
  C   C21       1.0  0.8884621572419887  0.4568510545146368  0.9588066656457884  1.0000
  C   C22       1.0  0.07031132965363433  0.0018285745752350902  0.9587842758263889  1.0000
  C   C23       1.0  0.50176330209824  0.38843662982871763  0.45884344050158893  1.0000
  C   C24       1.0  0.9572274881782759  0.5706700666180564  0.45902568465893273  1.0000
  C   C25       1.0  0.17492371093111808  0.53628327070097  0.08942441302612282  1.0000
  C   C26       1.0  0.9145816389383369  0.05333397493420492  0.08944675431107643  1.0000
  C   C27       1.0  0.5533932300301386  0.6749558018830798  0.5893295138363683  1.0000
  C   C28       1.0  0.0359880700245442  0.4143216879384256  0.5892950260179222  1.0000
  C   C29       1.0  0.8250791317646319  0.4637243065253217  0.9105795181890316  1.0000
  C   C30       1.0  0.08541277465020874  0.9466685400491317  0.9105546625950469  1.0000
  C   C31       1.0  0.446607371562834  0.3250402733950395  0.41067395360911263  1.0000
  C   C32       1.0  0.964006946730528  0.5856746964769145  0.410705206755793  1.0000
  C   C33       1.0  0.2505677586300265  0.5750259560697089  0.10682191532757906  1.0000
  C   C34       1.0  0.8563546365494402  0.03202179240165039  0.10687765226725066  1.0000
  C   C35       1.0  0.5319963502049561  0.7505898979777186  0.6067813489186449  1.0000
  C   C36       1.0  0.07476273468490283  0.35612075934687243  0.6067449552282085  1.0000
  C   C37       1.0  0.7494375769679779  0.4249784406230291  0.8931827345095303  1.0000
  C   C38       1.0  0.14363826788803644  0.9679787106810736  0.8931246344910876  1.0000
  C   C39       1.0  0.46800792651792017  0.24941238110893957  0.3932198453591412  1.0000
  C   C40       1.0  0.9252319536562864  0.6438745350648034  0.3932555442771459  1.0000
  C   C41       1.0  0.03296507941499266  0.5012596739896793  0.02340338018734656  1.0000
  C   C42       1.0  0.990421150934857  0.022220865340393924  0.023375931098044565  1.0000
  C   C43       1.0  0.5222521613353875  0.5329680649000396  0.5233335461089581  1.0000
  C   C44       1.0  0.0009937678416563841  0.49018689897505413  0.5232526617499859  1.0000
  C   C45       1.0  0.9670366018749517  0.49874887399670353  0.9765940051598464  1.0000
  C   C46       1.0  0.009568886289052511  0.9777884282780394  0.9766234675341963  1.0000
  C   C47       1.0  0.47774973245037683  0.46703337092777997  0.4766676379939342  1.0000
  C   C48       1.0  0.9990085383979589  0.5098088400896401  0.47675013291763696  1.0000
  C   C49       1.0  0.3539394091623649  0.7272573433553691  0.0021909815153975617  1.0000
  C   C50       1.0  0.6482648912846046  0.7750946853599033  0.002194593081284754  1.0000
  C   C51       1.0  0.27516410820267373  0.8540303960234965  0.5022090970127451  1.0000
  C   C52       1.0  0.2273070926933016  0.14816367265380848  0.5022705860247214  1.0000
  C   C53       1.0  0.6460674600214278  0.2727433657672406  0.9978140182892619  1.0000
  C   C54       1.0  0.3517372006483086  0.2249053812368444  0.9978014144628702  1.0000
  C   C55       1.0  0.7248356714546134  0.14597237384518996  0.49779115270702334  1.0000
  C   C56       1.0  0.7726899830474635  0.8518362285261746  0.49772753839018696  1.0000
  C   C57       1.0  0.3287141396234574  0.7994346311775049  0.0277146726264732  1.0000
  C   C58       1.0  0.6989441963910606  0.7283770431369946  0.027684457632396738  1.0000
  C   C59       1.0  0.22846596175340758  0.8287272649974115  0.5276797912551957  1.0000
  C   C60       1.0  0.2995467132592892  0.19882435525921247  0.5278053346686349  1.0000
  C   C61       1.0  0.6712881451534402  0.20056210842226113  0.9722869056251185  1.0000
  C   C62       1.0  0.3010579736378033  0.2716256345643161  0.9723134204006599  1.0000
  C   C63       1.0  0.7715387122339407  0.1712768659971644  0.4723224002737041  1.0000
  C   C64       1.0  0.7004510148467702  0.8011739624186235  0.47219464154833457  1.0000
  C   C65       1.0  0.2606474621137663  0.8218792799481492  0.993820919386991  1.0000
  C   C66       1.0  0.733101274997729  0.6720437772069515  0.9937640566945165  1.0000
  C   C67       1.0  0.17212085555837578  0.7606433022523192  0.4937363577434795  1.0000
  C   C68       1.0  0.3220835842432733  0.23298972808981946  0.4939283938090925  1.0000
  C   C69       1.0  0.7393576306007785  0.17812570241928682  0.006183485809046419  1.0000
  C   C70       1.0  0.2668959458787086  0.32795671235534485  0.006234213824285495  1.0000
  C   C71       1.0  0.8278827002690363  0.2393541206135978  0.5062670977863206  1.0000
  C   C72       1.0  0.6779213263541877  0.767007269094087  0.506073439258465  1.0000
  C   C73       1.0  0.2169272340193159  0.772598098095763  0.934110035344851  1.0000
  C   C74       1.0  0.7170967142452866  0.6616171558234714  0.9340438533209864  1.0000
  C   C75       1.0  0.16165511528067358  0.717026855133355  0.43398999267949995  1.0000
  C   C76       1.0  0.2728255136819655  0.2170819641314736  0.434226719558538  1.0000
  C   C77       1.0  0.7830797895455035  0.22740504860946242  0.06589571706985  1.0000
  C   C78       1.0  0.2829001186120266  0.33838333103121  0.0659540264528573  1.0000
  C   C79       1.0  0.8383485046144443  0.2829732439459819  0.566011735061565  1.0000
  C   C80       1.0  0.7271795894390535  0.7829173838740717  0.565775307179635  1.0000
  C   C81       1.0  0.2427132170694789  0.7013744421501045  0.9082716034498192  1.0000
  C   C82       1.0  0.6654824228903777  0.7070368538121985  0.9082469408404067  1.0000
  C   C83       1.0  0.2070903647144887  0.7429223508122221  0.40822116976119094  1.0000
  C   C84       1.0  0.2015791638701714  0.16546966986035022  0.4083661695106714  1.0000
  C   C85       1.0  0.7572909759338556  0.2986289458847153  0.09173309056842527  1.0000
  C   C86       1.0  0.33452092341322265  0.292962982276599  0.09175271933742123  1.0000
  C   C87       1.0  0.792910588245526  0.2570822763796273  0.5917808586996146  1.0000
  C   C88       1.0  0.7984244727047738  0.8345313429930813  0.5916337828749364  1.0000
  C   C89       1.0  0.3111735509540097  0.6787076099049046  0.9416924327635386  1.0000
  C   C90       1.0  0.6305430173623776  0.7631937436300048  0.9417114545221069  1.0000
  C   C91       1.0  0.26324307861695934  0.8113364174441033  0.4417139667089743  1.0000
  C   C92       1.0  0.17882096374952286  0.1304542172043455  0.44177179985641873  1.0000
  C   C93       1.0  0.6888317679641673  0.3212958730137387  0.058313992429020745  1.0000
  C   C94       1.0  0.3694576509498759  0.23680598674448564  0.058284911501551996  1.0000
  C   C95       1.0  0.7367584671030941  0.1886677135416407  0.5582892560772877  1.0000
  C   C96       1.0  0.8211817301887834  0.8695472023865991  0.5582260085193482  1.0000
  C   C97       1.0  0.671323025505984  0.6596040479079334  0.13736006471403775  1.0000
  C   C98       1.0  0.46576870666132203  0.9780220516616325  0.13725601602408938  1.0000
  C   C99       1.0  0.4780105536854578  0.1714062910296762  0.6371895292812155  1.0000
  C   C100      1.0  0.15956679390193781  0.9657740351818589  0.637383716842301  1.0000
  C   C101      1.0  0.3286741831530973  0.34039929138973696  0.8626375958948884  1.0000
  C   C102      1.0  0.5342326140162257  0.021976095210710936  0.8627422018016305  1.0000
  C   C103      1.0  0.5219906162328414  0.8285949875130784  0.36281391266995666  1.0000
  C   C104      1.0  0.8404336178190518  0.034220668157559045  0.36261418329948464  1.0000
  C   C105      1.0  0.7490613504571826  0.6515752192568415  0.13960820958345727  1.0000
  C   C106      1.0  0.39036900654583206  0.9884494972957327  0.13963207777845096  1.0000
  C   C107      1.0  0.4883689131199207  0.249142729946577  0.639456351442469  1.0000
  C   C108      1.0  0.1515916757776167  0.8903071708339284  0.6396641815855375  1.0000
  C   C109      1.0  0.2509351417688849  0.34842702732954933  0.8603893270121433  1.0000
  C   C110      1.0  0.6096367841110109  0.011552879382378525  0.8603712384186153  1.0000
  C   C111      1.0  0.5116357164515505  0.7508549396729975  0.3605457959234429  1.0000
  C   C112      1.0  0.8484065166326359  0.10969097602957595  0.3603350674975374  1.0000
  C   C113      1.0  0.765095617333884  0.5804417325977556  0.10378168435381954  1.0000
  C   C114      1.0  0.338497890259113  0.0237402663223492  0.10381861148576381  1.0000
  C   C115      1.0  0.5235949635379312  0.2651327027859764  0.6035609905579946  1.0000
  C   C116      1.0  0.08049947384490252  0.8383943419560893  0.6038695201206323  1.0000
  C   C117      1.0  0.2349016127879082  0.41956060616485064  0.8962171926711308  1.0000
  C   C118      1.0  0.6615045692003959  0.9762653938871609  0.8961879207559136  1.0000
  C   C119      1.0  0.47640747561998614  0.7348664743964052  0.396441340303639  1.0000
  C   C120      1.0  0.9195000659009338  0.16160431465161915  0.3961304883617985  1.0000
  C   C121      1.0  0.7041960699430803  0.516983966029585  0.0656474554423596  1.0000
  C   C122      1.0  0.3611362288789195  0.048834788367187826  0.0655316081513035  1.0000
  C   C123      1.0  0.5487432193876528  0.20416427839550272  0.5653437684919638  1.0000
  C   C124      1.0  0.01702671500227381  0.861096694126708  0.5657194419737409  1.0000
  C   C125      1.0  0.2958001627197149  0.48301795245740925  0.9343516118676264  1.0000
  C   C126      1.0  0.6388635648066056  0.9511679163926489  0.9344722398460946  1.0000
  C   C127      1.0  0.4512556083876405  0.7958370490103946  0.4346537307118155  1.0000
  C   C128      1.0  0.9829707794656811  0.13890405842612819  0.43428089610831216  1.0000
  C   C129      1.0  0.6271192396421056  0.5244502336601189  0.06434924664073806  1.0000
  C   C130      1.0  0.4368794053341603  0.04000843921402009  0.06415361029414159  1.0000
  C   C131      1.0  0.5400013542267814  0.12709393956690465  0.5640751244038144  1.0000
  C   C132      1.0  0.024417728595942306  0.9368961570196249  0.5644158166345292  1.0000
  C   C133      1.0  0.3728752195234435  0.4755512591360329  0.9356492294643602  1.0000
  C   C134      1.0  0.5631213932448275  0.9599937503952064  0.9358476655566221  1.0000
  C   C135      1.0  0.459997319167492  0.8729049502563699  0.43592162218991604  1.0000
  C   C136      1.0  0.9755820799585206  0.06310467688778942  0.4355832676396574  1.0000
  C   C137      1.0  0.6106262997582093  0.595148198696627  0.10001617738854657  1.0000
  C   C138      1.0  0.48907761922914966  0.0049998672895413335  0.09982296277636493  1.0000
  C   C139      1.0  0.505004407703936  0.11065076097926865  0.599796827362198  1.0000
  C   C140      1.0  0.09508246685019364  0.9891316277840545  0.6000637278387089  1.0000
  C   C141      1.0  0.3893715231236214  0.4048536438598732  0.899983893961867  1.0000
  C   C142      1.0  0.5109247296154534  0.9949995485236512  0.9001768876864915  1.0000
  C   C143      1.0  0.4949973409461563  0.8893500864662371  0.4002042106368009  1.0000
  C   C144      1.0  0.9049186416519673  0.010867953428231731  0.39993606826811867  1.0000
  C   C145      1.0  0.925179242634833  0.9196359968992593  0.20315533993958468  1.0000
  C   C146      1.0  0.27788118478103735  0.7831689515470471  0.2031150652520495  1.0000
  C   C147      1.0  0.28299484318952745  0.42512552839697554  0.7030262609054035  1.0000
  C   C148      1.0  0.4198627986231144  0.777876721274339  0.7031209047987019  1.0000
  C   C149      1.0  0.0748168207779969  0.08036535485753399  0.7968477384835709  1.0000
  C   C150      1.0  0.7221199833263653  0.2168295423691973  0.7968853883313827  1.0000
  C   C151      1.0  0.7169976451723343  0.5748751021958471  0.2969684385527104  1.0000
  C   C152      1.0  0.5801420279343787  0.22212706267634277  0.2968790509724855  1.0000
  C   C153      1.0  0.9837505735848635  0.9014862104035402  0.17840098524347775  1.0000
  C   C154      1.0  0.1945499525857954  0.7765321569643646  0.1783033054566872  1.0000
  C   C155      1.0  0.27627849758316353  0.4836769306085743  0.6782353329987885  1.0000
  C   C156      1.0  0.4017463757454109  0.6945443429780626  0.6783022064238297  1.0000
  C   C157      1.0  0.01624127676037552  0.0985102607639377  0.8216008377270257  1.0000
  C   C158      1.0  0.8054512647203893  0.22347088401772205  0.8217001840612072  1.0000
  C   C159      1.0  0.7237171571885243  0.5163236132321105  0.3217577762625369  1.0000
  C   C160      1.0  0.598254285132377  0.3054563228226428  0.32169654146143495  1.0000
  C   C161      1.0  0.05428122640868344  0.9536965378143236  0.202712515863027  1.0000
  C   C162      1.0  0.1482360446215338  0.748739669362685  0.20260205221637048  1.0000
  C   C163      1.0  0.24845988054885032  0.5542342360569563  0.7026182926127902  1.0000
  C   C164      1.0  0.45388936672600283  0.6482931286951726  0.7026441971956531  1.0000
  C   C165      1.0  0.9457115078086319  0.046298808168117524  0.7972824316398858  1.0000
  C   C166      1.0  0.8517660631504994  0.2512631167517227  0.7974005419731753  1.0000
  C   C167      1.0  0.7515361500245986  0.44576916022671764  0.2973745974836178  1.0000
  C   C168      1.0  0.5461143479448936  0.3517104952628288  0.29735762567884905  1.0000
  C   C169      1.0  0.06702245328094848  0.0250035809644302  0.25159792432507544  1.0000
  C   C170      1.0  0.18433989662915456  0.7264253908547365  0.25155619305649424  1.0000
  C   C171      1.0  0.22629657677718742  0.5670256551071591  0.7516345949251005  1.0000
  C   C172      1.0  0.5251089919416785  0.6844792105570434  0.7516297744533489  1.0000
  C   C173      1.0  0.9329755233321462  0.9749904309859828  0.748396926303613  1.0000
  C   C174      1.0  0.8156610944733913  0.27357914957613627  0.7484452764648851  1.0000
  C   C175      1.0  0.7737025642226171  0.43298431097345264  0.24836202423341547  1.0000
  C   C176      1.0  0.4748947730891119  0.31552147690460697  0.24837209939160942  1.0000
  C   C177      1.0  0.008660946956574442  0.04356000013894602  0.2760749037871052  1.0000
  C   C178      1.0  0.26717890477587497  0.732270481709918  0.2760455735294656  1.0000
  C   C179      1.0  0.2323037367830523  0.5086747376286597  0.7761175403517059  1.0000
  C   C180      1.0  0.5436498705956154  0.7673274792540569  0.7761412032425525  1.0000
  C   C181      1.0  0.9913407524947431  0.9564363002407106  0.7239230982774246  1.0000
  C   C182      1.0  0.7328218753124032  0.267728009498704  0.7239544893090013  1.0000
  C   C183      1.0  0.7676906672397122  0.491331605972995  0.22387789301145486  1.0000
  C   C184      1.0  0.45634950733472823  0.23266967519724346  0.22386043449144205  1.0000
  C   C185      1.0  0.9383597229144626  0.9912817870875448  0.2523036312519055  1.0000
  C   C186      1.0  0.31378584219706335  0.7607054465901443  0.2522891647792278  1.0000
  C   C187      1.0  0.2606866725773854  0.4383316475644393  0.7522544594956387  1.0000
  C   C188      1.0  0.4914430393252258  0.8138597597186107  0.7523286724663124  1.0000
  C   C189      1.0  0.061639224071328214  0.008717365726269601  0.7476951829050692  1.0000
  C   C190      1.0  0.6862166535941014  0.23929734223187893  0.7477138201552763  1.0000
  C   C191      1.0  0.7393001072736141  0.5616677032482187  0.2477380756028467  1.0000
  C   C192      1.0  0.5085642038494527  0.1861410172204715  0.2476731198056754  1.0000
  C   C193      1.0  0.9597134551307249  0.8152570095568806  0.3420965604568665  1.0000
  C   C194      1.0  0.3822691091479271  0.02711226940755303  0.34207648105329014  1.0000
  C   C195      1.0  0.5271748946011456  0.45961769454430623  0.8421232339228484  1.0000
  C   C196      1.0  0.31505087502384294  0.8823125137930461  0.8420744601515012  1.0000
  C   C197      1.0  0.040290593898056844  0.18473830653342566  0.6579050024934647  1.0000
  C   C198      1.0  0.6177326621260022  0.9728800939406882  0.6579227883977268  1.0000
  C   C199      1.0  0.47282777819487615  0.5403790477630753  0.15787873507370168  1.0000
  C   C200      1.0  0.6849437745250525  0.11767259919090384  0.1579206249615126  1.0000
  C   C201      1.0  0.9997838565106818  0.8383562216584295  0.3112844544833067  1.0000
  C   C202      1.0  0.31141615213720547  0.9731402723267951  0.31133442053096166  1.0000
  C   C203      1.0  0.4731615113633579  0.4997256062575561  0.8114198580219565  1.0000
  C   C204      1.0  0.33834192598875035  0.8115115679078218  0.8113460478372048  1.0000
  C   C205      1.0  0.00021766444532288743  0.16163766279072433  0.6887169521882442  1.0000
  C   C206      1.0  0.6885828433975972  0.02685315936415833  0.6886614562287151  1.0000
  C   C207      1.0  0.5268442589918934  0.5002702873934268  0.18857925679506585  1.0000
  C   C208      1.0  0.6616540279703003  0.18847605589045463  0.18864736384310984  1.0000
  C   C209      1.0  0.07189086300840597  0.8888680658058733  0.34279812549242195  1.0000
  C   C210      1.0  0.27099108900805646  0.9541001116579294  0.3429371392977956  1.0000
  C   C211      1.0  0.4542270950804834  0.5717762556524164  0.8430635618728743  1.0000
  C   C212      1.0  0.3888962752503674  0.7710472454908343  0.8429417629328742  1.0000
  C   C213      1.0  0.9281080151267813  0.11113032510368015  0.6571994246817994  1.0000
  C   C214      1.0  0.7290096007669078  0.04589861818149646  0.6570604431418944  1.0000
  C   C215      1.0  0.5457879778475672  0.42822920941837594  0.1569335702434529  1.0000
  C   C216      1.0  0.6111098142734122  0.22894788896350357  0.15705647864636063  1.0000
  C   C217      1.0  0.10592248517018996  0.9159280451873144  0.40548396687010074  1.0000
  C   C218      1.0  0.2996836929347849  0.9898370040540528  0.4056237036679846  1.0000
  C   C219      1.0  0.49001039719523504  0.6056843678828941  0.9057475995959623  1.0000
  C   C220      1.0  0.41582519539439017  0.7997763308106515  0.9056192514696093  1.0000
  C   C221      1.0  0.894075278106399  0.08407488466522041  0.5945154470037082  1.0000
  C   C222      1.0  0.7003080593422409  0.010166318989071525  0.5943726437285264  1.0000
  C   C223      1.0  0.5099978386555435  0.3943187436409589  0.09425101061950868  1.0000
  C   C224      1.0  0.5841729525999853  0.20021535467785162  0.09437995345048474  1.0000
  C   C225      1.0  0.06761390540891907  0.8915324608845197  0.43625202939261953  1.0000
  C   C226      1.0  0.3686975658352196  0.0450732463973438  0.4363087081987588  1.0000
  C   C227      1.0  0.5453207084495019  0.5673892530881306  0.9363936868650882  1.0000
  C   C228      1.0  0.3912512619091047  0.8687465634252547  0.9363115738024705  1.0000
  C   C229      1.0  0.9323861201038212  0.10846502437379264  0.5637484683719478  1.0000
  C   C230      1.0  0.6312980752286563  0.9549216847335702  0.5636861798217582  1.0000
  C   C231      1.0  0.4546790649344317  0.43260696864457776  0.063605959752266  1.0000
  C   C232      1.0  0.608746505500612  0.13124418392941817  0.06368485851105275  1.0000
  C   C233      1.0  0.9949949806971431  0.8415114265522806  0.4050238571530402  1.0000
  C   C234      1.0  0.41001922565792626  0.0638304508942582  0.4050187207772212  1.0000
  C   C235      1.0  0.5640503066796754  0.4948062220937717  0.905047942285755  1.0000
  C   C236      1.0  0.341179569015587  0.910021187709269  0.905003512487852  1.0000
  C   C237      1.0  0.0050046186539419  0.1584861427593864  0.5949768088059956  1.0000
  C   C238      1.0  0.5899846093845865  0.9361635149094668  0.5949814320864776  1.0000
  C   C239      1.0  0.43596002661976735  0.5051946416151268  0.09495337766830401  1.0000
  C   C240      1.0  0.6588192554583686  0.0899688926249667  0.09499338701724006  1.0000
  S   S1        1.0  0.43643011857182046  0.691892750338475  0.04461474898346295  1.0000
  S   S2        1.0  0.6082988405190974  0.8529363417010742  0.044666604064857895  1.0000
  S   S3        1.0  0.3529576979153362  0.9365199550836678  0.5447029603052657  1.0000
  S   S4        1.0  0.19181443539427806  0.10810345586322262  0.5446383617186116  1.0000
  S   S5        1.0  0.563576826897048  0.3081077852621804  0.9553891329423437  1.0000
  S   S6        1.0  0.3916996877395036  0.14706195973988662  0.955329996424979  1.0000
  S   S7        1.0  0.6470445213122957  0.06348726968349186  0.4552979536622602  1.0000
  S   S8        1.0  0.8081858496817418  0.8918943574944863  0.4553606053315703  1.0000
  S   S9        1.0  0.6499944353096083  0.7501898530968704  0.18256748044593255  1.0000
  S   S10       1.0  0.5322275791068235  0.93261307565875  0.18247660618647632  1.0000
  S   S11       1.0  0.4326314108633796  0.15019602669823232  0.6824512624173382  1.0000
  S   S12       1.0  0.250162958802683  0.03230153469042562  0.6825688501474901  1.0000
  S   S13       1.0  0.3500080649440136  0.24981669923461422  0.8174331192232388  1.0000
  S   S14       1.0  0.46777287256758626  0.06738432554621453  0.8175237233836299  1.0000
  S   S15       1.0  0.5673754472641831  0.8498000485975581  0.3175501425134257  1.0000
  S   S16       1.0  0.7498389901258661  0.9676950503318907  0.3174353766973397  1.0000
  S   S17       1.0  0.8387202807675749  0.8488595851026873  0.1718495032350021  1.0000
  S   S18       1.0  0.3331344412487738  0.8228873892085673  0.1719719230488437  1.0000
  S   S19       1.0  0.32273360764204273  0.3388005461310258  0.6717995544495424  1.0000
  S   S20       1.0  0.3490361958064625  0.8330791128257717  0.671906821978702  1.0000
  S   S21       1.0  0.16127398503372353  0.15114136261538394  0.8281571412003218  1.0000
  S   S22       1.0  0.6668675520956597  0.17711565718875735  0.8280323479589741  1.0000
  S   S23       1.0  0.6772639294309144  0.6612038831703019  0.3281978394277445  1.0000
  S   S24       1.0  0.6509649982261152  0.1669221440648627  0.3280924627554143  1.0000
  S   S25       1.0  0.8665098028783546  0.7538683830776309  0.2983731085186818  1.0000
  S   S26       1.0  0.4317103723581822  0.04476368585334713  0.29832453651224006  1.0000
  S   S27       1.0  0.5446861715194017  0.36638742852272094  0.7983137294119304  1.0000
  S   S28       1.0  0.25361130103899404  0.9317076929819663  0.7983113939405301  1.0000
  S   S29       1.0  0.13349184918507706  0.24612615486269368  0.7016248459791329  1.0000
  S   S30       1.0  0.5682875112900163  0.9552295858449187  0.7016732073507584  1.0000
  S   S31       1.0  0.4553119949656761  0.6336079553663866  0.20168668852045363  1.0000
  S   S32       1.0  0.7463815097838234  0.0682818016599001  0.20168781272034408  1.0000
  N   N1        1.0  0.2662460169467238  0.6203846730172486  0.07950402513355208  1.0000
  N   N2        1.0  0.8133529363621363  0.9593378737451629  0.07959453180038874  1.0000
  N   N3        1.0  0.4592845355309266  0.7662080527667074  0.579510245539531  1.0000
  N   N4        1.0  0.12008189921106542  0.31308743109482867  0.5794124850556059  1.0000
  N   N5        1.0  0.7337581042340061  0.3796226520489796  0.9204994014982121  1.0000
  N   N6        1.0  0.1866392042544477  0.04065977418694902  0.9204075833779016  1.0000
  N   N7        1.0  0.5407173367921274  0.23379438359618385  0.42048972214733743  1.0000
  N   N8        1.0  0.8799122652206818  0.6869091214272202  0.4205880841070381  1.0000
