data_image0
_chemical_formula_structural       Zn8H112C232N16O48F48
_chemical_formula_sum              "Zn8 H112 C232 N16 O48 F48"
_cell_length_a       16.415948154007246
_cell_length_b       22.484176630010406
_cell_length_c       30.398832790019103
_cell_angle_alpha    89.99990781743823
_cell_angle_beta     90.00008940668314
_cell_angle_gamma    90.00006030926917

_space_group_name_H-M_alt    "P 1"
_space_group_IT_number       1

loop_
  _space_group_symop_operation_xyz
  'x, y, z'

loop_
  _atom_site_type_symbol
  _atom_site_label
  _atom_site_symmetry_multiplicity
  _atom_site_fract_x
  _atom_site_fract_y
  _atom_site_fract_z
  _atom_site_occupancy
  Zn  Zn1       1.0  0.0668813952909133  0.5307992992522655  0.21976703202768988  1.0000
  Zn  Zn2       1.0  0.4331171444352577  0.9692014290473735  0.7197673730684002  1.0000
  Zn  Zn3       1.0  0.5668810558560722  0.9692005249668796  0.7802322509523519  1.0000
  Zn  Zn4       1.0  0.9331183802876737  0.5307991204185925  0.280232547340951  1.0000
  Zn  Zn5       1.0  0.9331178401486824  0.46920192454135184  0.7802330315263359  1.0000
  Zn  Zn6       1.0  0.5668820910025759  0.0307980157176999  0.2802323615266786  1.0000
  Zn  Zn7       1.0  0.4331193979080723  0.030798030284572096  0.2197671546837725  1.0000
  Zn  Zn8       1.0  0.06688146431484648  0.46920165861839536  0.7197671872535878  1.0000
  H   H1        1.0  0.0907848142275682  0.4749383397606407  0.13334369129709955  1.0000
  H   H2        1.0  0.4092145798205564  0.0250619819659761  0.6333435536372889  1.0000
  H   H3        1.0  0.5907846912950703  0.025061797638557003  0.8666565355356324  1.0000
  H   H4        1.0  0.9092148805398279  0.47493750979614174  0.36665595451958666  1.0000
  H   H5        1.0  0.9092144212112317  0.5250624392761125  0.8666560432971832  1.0000
  H   H6        1.0  0.5907858739451868  0.9749374627992111  0.3666565099183003  1.0000
  H   H7        1.0  0.4092145441432393  0.974937647126161  0.13334352801945218  1.0000
  H   H8        1.0  0.09078679155192049  0.52506193497058  0.6333431221565247  1.0000
  H   H9        1.0  0.2014667261700325  0.4651284341906673  0.0762201689012585  1.0000
  H   H10       1.0  0.29853128440952753  0.034872456599003995  0.5762205842674888  1.0000
  H   H11       1.0  0.7014673917345675  0.034870898462457896  0.9237801511562509  1.0000
  H   H12       1.0  0.7985341727351597  0.46512872942244593  0.42378014650433465  1.0000
  H   H13       1.0  0.7985337275968263  0.5348719000886105  0.9237802236138035  1.0000
  H   H14       1.0  0.701468560193142  0.9651278776804018  0.4237794792873187  1.0000
  H   H15       1.0  0.2985324528676259  0.9651294358173028  0.0762195834385579  1.0000
  H   H16       1.0  0.20147054517772733  0.5348716048584662  0.5762202460125179  1.0000
  H   H17       1.0  0.35153928083039426  0.5774496159070566  0.15810061173459639  1.0000
  H   H18       1.0  0.14846090810960533  0.9225499123148989  0.6581004395496136  1.0000
  H   H19       1.0  0.851537833858515  0.9225504263225371  0.8418992399634033  1.0000
  H   H20       1.0  0.6484611714001076  0.5774495296252057  0.34190022798281205  1.0000
  H   H21       1.0  0.6484599546101392  0.4225502736134601  0.8419007676602135  1.0000
  H   H22       1.0  0.8515389364922682  0.07744997720763538  0.3418992950454651  1.0000
  H   H23       1.0  0.1484614015797945  0.0774490184421808  0.15810082359167407  1.0000
  H   H24       1.0  0.3515392823667439  0.42254947038168206  0.6581008224530434  1.0000
  H   H25       1.0  0.2338294384559418  0.582953383483577  0.21141148734504608  1.0000
  H   H26       1.0  0.26617151376634496  0.9170451392145932  0.7114107629311873  1.0000
  H   H27       1.0  0.7338272202386873  0.9170461238372238  0.7885889231295735  1.0000
  H   H28       1.0  0.766169803407493  0.5829530586060158  0.2885883589451622  1.0000
  H   H29       1.0  0.7661697969844354  0.41704695079452125  0.7885895630895021  1.0000
  H   H30       1.0  0.7338283308350525  0.08295475030830349  0.2885886427038855  1.0000
  H   H31       1.0  0.26617201519977834  0.08295287616991227  0.21141146938576574  1.0000
  H   H32       1.0  0.23382882286598056  0.417045496644377  0.7114113756501935  1.0000
  H   H33       1.0  0.4506468516365416  0.3574008009953856  0.04671295497377059  1.0000
  H   H34       1.0  0.04934802781873059  0.142598374975087  0.5467133612788542  1.0000
  H   H35       1.0  0.9506508041659673  0.1425987225002672  0.9532862591217464  1.0000
  H   H36       1.0  0.5493514547708004  0.35740262020468794  0.45328683065392983  1.0000
  H   H37       1.0  0.5493523838028836  0.6425995332834303  0.95328743754078  1.0000
  H   H38       1.0  0.9506518167824964  0.8574006250329944  0.45328637331674315  1.0000
  H   H39       1.0  0.04934843127171721  0.8574011670223882  0.04671314651307058  1.0000
  H   H40       1.0  0.4506489989959235  0.6425994931045622  0.5467125749800771  1.0000
  H   H41       1.0  0.44313054594035617  0.6535682289157946  0.012943715936785297  1.0000
  H   H42       1.0  0.056869832520440894  0.8464316151826098  0.5129442150717549  1.0000
  H   H43       1.0  0.943129408495416  0.8464318834617326  0.987055554985808  1.0000
  H   H44       1.0  0.5568681889138674  0.6535695356397894  0.4870553884345127  1.0000
  H   H45       1.0  0.556869907827135  0.34643166060554614  0.9870573344985373  1.0000
  H   H46       1.0  0.9431300120817525  0.15356871909715147  0.4870555195230537  1.0000
  H   H47       1.0  0.0568686086165897  0.1535697850890045  0.012944179607437397  1.0000
  H   H48       1.0  0.4431310465244635  0.3464325776697094  0.512943359278978  1.0000
  H   H49       1.0  0.4871067661012916  0.8946542921247554  0.3706290349508946  1.0000
  H   H50       1.0  0.0128934280873665  0.6053456631276076  0.8706281390224432  1.0000
  H   H51       1.0  0.987105464161736  0.6053462986900441  0.6293702730111689  1.0000
  H   H52       1.0  0.5128917083532514  0.8946518959570682  0.12937109848596146  1.0000
  H   H53       1.0  0.5128930785023158  0.10534470788154238  0.6293723444447037  1.0000
  H   H54       1.0  0.9871064165156088  0.39465378163662734  0.12937258245289474  1.0000
  H   H55       1.0  0.012894380440471297  0.39465536986210725  0.37062880366285356  1.0000
  H   H56       1.0  0.4871063087542709  0.10534488026490856  0.8706279781901926  1.0000
  H   H57       1.0  0.4184223548371264  0.8216232985351725  0.4183710140962233  1.0000
  H   H58       1.0  0.0815767590445873  0.6783778870974898  0.918369431225571  1.0000
  H   H59       1.0  0.918421629690755  0.678377239676088  0.5816285649753468  1.0000
  H   H60       1.0  0.5815741864767859  0.821619724589432  0.08162986413229588  1.0000
  H   H61       1.0  0.5815738347843435  0.17837659098453426  0.5816300363373086  1.0000
  H   H62       1.0  0.918423694721966  0.32162333669695187  0.08163030336896777  1.0000
  H   H63       1.0  0.0815769965833795  0.3216235393611483  0.41837051169868994  1.0000
  H   H64       1.0  0.4184262672859233  0.17837749639070216  0.9183692125446186  1.0000
  H   H65       1.0  0.2061207654109154  0.8300648003951993  0.3347068521174776  1.0000
  H   H66       1.0  0.293879324928433  0.6699356777847284  0.8347061160240724  1.0000
  H   H67       1.0  0.7061214882526698  0.6699369094915751  0.6652935350189111  1.0000
  H   H68       1.0  0.7938776156048631  0.8300629860144327  0.1652923712694444  1.0000
  H   H69       1.0  0.7938784700291563  0.16993642339806306  0.66529354039654  1.0000
  H   H70       1.0  0.706121128838106  0.3300642117373229  0.16529427649125944  1.0000
  H   H71       1.0  0.2938783563488911  0.330063869546123  0.3347055416556302  1.0000
  H   H72       1.0  0.20612222899526242  0.16993645875195537  0.8347063764458935  1.0000
  H   H73       1.0  0.27632747915711064  0.9046791293792608  0.2878001021086476  1.0000
  H   H74       1.0  0.22367308473993566  0.5953205613601681  0.7877997245981447  1.0000
  H   H75       1.0  0.7763270113365053  0.5953221895194856  0.7122000152004233  1.0000
  H   H76       1.0  0.7236728372899676  0.9046780486706255  0.212198703563466  1.0000
  H   H77       1.0  0.723672974610075  0.09532164965724377  0.7122002904061517  1.0000
  H   H78       1.0  0.7763267598625703  0.4046788834044221  0.21220066791718747  1.0000
  H   H79       1.0  0.22367283326697415  0.4046799237891746  0.28779971939332677  1.0000
  H   H80       1.0  0.2763263981457982  0.09532050658107487  0.7878000441521492  1.0000
  H   H81       1.0  0.025203333759300492  0.6636129688554105  0.3683492850493266  1.0000
  H   H82       1.0  0.4747980721688235  0.8363878808712855  0.8683498191797553  1.0000
  H   H83       1.0  0.5252011543134004  0.8363872682027419  0.6316476601055497  1.0000
  H   H84       1.0  0.9747966339525006  0.663612255758643  0.13165013633528128  1.0000
  H   H85       1.0  0.9747965108430634  0.3363882549391519  0.6316501205849505  1.0000
  H   H86       1.0  0.5252023815967632  0.16361200865148356  0.13164991541557913  1.0000
  H   H87       1.0  0.4747974719588299  0.16361351083592268  0.36835010072848456  1.0000
  H   H88       1.0  0.0252026014883242  0.3363854099743121  0.8683525589008454  1.0000
  H   H89       1.0  0.09805395313334492  0.7327553460463958  0.41764064083560726  1.0000
  H   H90       1.0  0.401946376967082  0.7672453964165483  0.9176411958520061  1.0000
  H   H91       1.0  0.598055186147576  0.7672453915633921  0.582357352560237  1.0000
  H   H92       1.0  0.9019455054392439  0.7327551291758212  0.0823586983023006  1.0000
  H   H93       1.0  0.9019440639781848  0.26724632250469676  0.5823587647976394  1.0000
  H   H94       1.0  0.5980534676351112  0.2327549378632056  0.0823585387428025  1.0000
  H   H95       1.0  0.4019458767806441  0.23275627699029394  0.41764073723429346  1.0000
  H   H96       1.0  0.09805738498327089  0.26724431558886846  0.9176426810943139  1.0000
  H   H97       1.0  0.30927525089522584  0.7221840842249775  0.3332967082073779  1.0000
  H   H98       1.0  0.1907254445319495  0.7778159522657402  0.8332967437844445  1.0000
  H   H99       1.0  0.809273697223432  0.7778172599067331  0.666703765812116  1.0000
  H   H100      1.0  0.6907241923858932  0.7221844115581317  0.16670330142491704  1.0000
  H   H101      1.0  0.6907239845446751  0.2778162500534762  0.6667040132671715  1.0000
  H   H102      1.0  0.8092744000707198  0.22218438201365837  0.16670331977036304  1.0000
  H   H103      1.0  0.19072492905195298  0.22218262961462182  0.3332966267024417  1.0000
  H   H104      1.0  0.30927504305324044  0.2778181465082311  0.8332957752483168  1.0000
  H   H105      1.0  0.23473237519163354  0.652150412063115  0.2847813688758549  1.0000
  H   H106      1.0  0.2652693983042837  0.8478483957320647  0.7847803970528628  1.0000
  H   H107      1.0  0.7347267989423969  0.8478490959479286  0.715219042357873  1.0000
  H   H108      1.0  0.7652681851049508  0.6521515804260146  0.21521938198281276  1.0000
  H   H109      1.0  0.765268687738917  0.34784725367161673  0.7152203394810498  1.0000
  H   H110      1.0  0.7347310554613031  0.15215149379070425  0.21521933754246445  1.0000
  H   H111      1.0  0.2652681723498702  0.1521490145427649  0.2847816791162074  1.0000
  H   H112      1.0  0.2347273953531328  0.34785008812307433  0.7847810105294  1.0000
  C   C1        1.0  0.14959837389528727  0.49688045603785724  0.1369560127627452  1.0000
  C   C2        1.0  0.3503998122689466  0.0031198578271584986  0.6369561806261499  1.0000
  C   C3        1.0  0.6495988179407916  0.0031192816479404003  0.8630442636073139  1.0000
  C   C4        1.0  0.8504007434518355  0.4968804784044065  0.36304393591262135  1.0000
  C   C5        1.0  0.8504002523804246  0.5031198782407242  0.8630443797515497  1.0000
  C   C6        1.0  0.6495994231701587  0.996880031694424  0.3630442118886634  1.0000
  C   C7        1.0  0.3504016358248023  0.9968806078748285  0.1369554709880134  1.0000
  C   C8        1.0  0.14960092864134114  0.5031189663612493  0.6369561276434863  1.0000
  C   C9        1.0  0.2109015156546548  0.49161681172105187  0.10574102741821889  1.0000
  C   C10       1.0  0.28909840775993695  0.008384014828742199  0.6057414663470979  1.0000
  C   C11       1.0  0.710901448392086  0.008383417672789096  0.8942586426650789  1.0000
  C   C12       1.0  0.7890994215698868  0.4916167192100359  0.3942595854391868  1.0000
  C   C13       1.0  0.7890989381133267  0.5083844120723169  0.8942596940563162  1.0000
  C   C14       1.0  0.7109026551695266  0.9916154299366722  0.3942585972087542  1.0000
  C   C15       1.0  0.2890983962097806  0.9916164718497452  0.10574109192999258  1.0000
  C   C16       1.0  0.21090346885311823  0.5083840598266818  0.6057414649966403  1.0000
  C   C17       1.0  0.2846657913220412  0.5204753488974063  0.11342390209242839  1.0000
  C   C18       1.0  0.21533244097025062  0.979525610815763  0.6134247053392485  1.0000
  C   C19       1.0  0.7846663834212464  0.979525531631665  0.8865752353604534  1.0000
  C   C20       1.0  0.7153345784874717  0.5204756613678541  0.3865770053967026  1.0000
  C   C21       1.0  0.7153340532812534  0.47952454062405525  0.8865768193826398  1.0000
  C   C22       1.0  0.78466740363082  0.020473833949900197  0.3865747002960872  1.0000
  C   C23       1.0  0.21533467950870025  0.020475247405784092  0.11342449923459698  1.0000
  C   C24       1.0  0.28466831193728126  0.4795255624250173  0.613425031918851  1.0000
  C   C25       1.0  0.2947676326516842  0.5541265324597332  0.1515187700404965  1.0000
  C   C26       1.0  0.2052319280976818  0.9458730100840426  0.6515192758489832  1.0000
  C   C27       1.0  0.794766847610525  0.9458734662910613  0.8484803759208075  1.0000
  C   C28       1.0  0.705232785837616  0.5541269200931537  0.3484811105398861  1.0000
  C   C29       1.0  0.7052328211156579  0.4458738018191823  0.8484819514345643  1.0000
  C   C30       1.0  0.7947673073393561  0.0541259899241666  0.34848012978636683  1.0000
  C   C31       1.0  0.20523299699166836  0.054126867988692595  0.15151935867400104  1.0000
  C   C32       1.0  0.29476888625730874  0.44587296942864896  0.6515199398959552  1.0000
  C   C33       1.0  0.2301585554369652  0.5573380675401224  0.18101987361922053  1.0000
  C   C34       1.0  0.2698410905979429  0.942660966049523  0.6810197797464637  1.0000
  C   C35       1.0  0.7301570713003612  0.9426614369698924  0.8189802048038428  1.0000
  C   C36       1.0  0.7698418676981831  0.5573376793386088  0.31898033210143945  1.0000
  C   C37       1.0  0.76984068000246  0.4426622667386865  0.8189805188953299  1.0000
  C   C38       1.0  0.7301581448398905  0.057338478715557493  0.318979954848615  1.0000
  C   C39       1.0  0.26984216413842427  0.05733800779447048  0.18102018771123335  1.0000
  C   C40       1.0  0.23015980439529932  0.44266087591187625  0.6810203893751916  1.0000
  C   C41       1.0  0.37949846833850387  0.4569836657875399  0.0739408848886498  1.0000
  C   C42       1.0  0.12049527150799831  0.04301678520126019  0.573943114374323  1.0000
  C   C43       1.0  0.8795034164171653  0.043016692734603595  0.9260562955207092  1.0000
  C   C44       1.0  0.6204999821290115  0.4569842644664702  0.4260591112440935  1.0000
  C   C45       1.0  0.6204989396076996  0.5430157789771926  0.9260585207456626  1.0000
  C   C46       1.0  0.8795039639290536  0.9569835490793392  0.42605563334022617  1.0000
  C   C47       1.0  0.1204976465121561  0.9569845310607901  0.0739427811540807  1.0000
  C   C48       1.0  0.3795041266247523  0.5430165145682081  0.5739442419122296  1.0000
  C   C49       1.0  0.442189889170244  0.4517622777549235  0.0392185285957822  1.0000
  C   C50       1.0  0.057805577784691295  0.04823824879527899  0.5392197121881495  1.0000
  C   C51       1.0  0.9421937268582354  0.048239463051295686  0.9607793625353409  1.0000
  C   C52       1.0  0.5578079445801478  0.451762308102822  0.46078180270798436  1.0000
  C   C53       1.0  0.5578063004491726  0.5482380565237932  0.9607808770374928  1.0000
  C   C54       1.0  0.9421942668162302  0.951761640727966  0.46077936448692464  1.0000
  C   C55       1.0  0.05780611774476801  0.95176265025772  0.03922004309841039  1.0000
  C   C56       1.0  0.44219494584554997  0.5482389156893319  0.5392208925275667  1.0000
  C   C57       1.0  0.46998420676910496  0.5030904098717952  0.016765345050707498  1.0000
  C   C58       1.0  0.030012527757477897  0.9969103154239534  0.5167653136093264  1.0000
  C   C59       1.0  0.9699875401108429  0.996911502102776  0.9832339484907067  1.0000
  C   C60       1.0  0.5300143103992667  0.503091704344257  0.48323492519678257  1.0000
  C   C61       1.0  0.5300113736857952  0.49690947964981547  0.9832337316225689  1.0000
  C   C62       1.0  0.969987316842662  0.0030904636148178996  0.4832327761852183  1.0000
  C   C63       1.0  0.0300135228207168  0.0030915007207993994  0.016765786103029298  1.0000
  C   C64       1.0  0.4699879708622419  0.4969095194480245  0.5167674410785139  1.0000
  C   C65       1.0  0.43963511740175687  0.5604489474376632  0.026936412359923195  1.0000
  C   C66       1.0  0.06036286485629459  0.9395513109679  0.5269364747105383  1.0000
  C   C67       1.0  0.9396389475261202  0.9395529412932574  0.9730631845796152  1.0000
  C   C68       1.0  0.5603640919075373  0.5604502872873167  0.4730637896587452  1.0000
  C   C69       1.0  0.560361681382325  0.4395513868405698  0.9730636511935982  1.0000
  C   C70       1.0  0.9396381980714279  0.06044902331375818  0.4730619440447866  1.0000
  C   C71       1.0  0.06036272456913849  0.060448727258162194  0.026937207935169693  1.0000
  C   C72       1.0  0.43963818935399246  0.439552270777355  0.5269379186957578  1.0000
  C   C73       1.0  0.3765379946693129  0.5680684667224226  0.0612439484970579  1.0000
  C   C74       1.0  0.12346008677271672  0.9319330512971643  0.5612447309752895  1.0000
  C   C75       1.0  0.8765404962593164  0.9319324841703531  0.9387546084177173  1.0000
  C   C76       1.0  0.6234612256610178  0.5680694847971635  0.4387552575782436  1.0000
  C   C77       1.0  0.6234618499341379  0.43193097804145686  0.9387571019382716  1.0000
  C   C78       1.0  0.8765409761551624  0.06806683822691179  0.4387540167402974  1.0000
  C   C79       1.0  0.12345873917868026  0.06806785010952858  0.06124479721683679  1.0000
  C   C80       1.0  0.37654105559875717  0.43193262851135467  0.5612454638965332  1.0000
  C   C81       1.0  0.4731012373143741  0.3959973059073645  0.028710605536730292  1.0000
  C   C82       1.0  0.026894808423541895  0.10400235399652047  0.5287103809206711  1.0000
  C   C83       1.0  0.9731045768901438  0.10400312429930376  0.9712889564306266  1.0000
  C   C84       1.0  0.5268965157647756  0.39599817922910324  0.4712897921000092  1.0000
  C   C85       1.0  0.5268955614695444  0.6040021388560602  0.9712897869773228  1.0000
  C   C86       1.0  0.9731050361767402  0.8959966460122784  0.47128869575492865  1.0000
  C   C87       1.0  0.026895876876089596  0.895997654737911  0.028710778164167994  1.0000
  C   C88       1.0  0.4731045471675656  0.6040039340789463  0.5287109293742487  1.0000
  C   C89       1.0  0.46799108269343037  0.6101150220598797  0.004447044440034598  1.0000
  C   C90       1.0  0.0320080528755966  0.8898852852857357  0.5044468130265045  1.0000
  C   C91       1.0  0.9679918601666059  0.8898859988717122  0.9955532343020934  1.0000
  C   C92       1.0  0.5320075893003917  0.6101154017386108  0.495553098500224  1.0000
  C   C93       1.0  0.5320075435814857  0.3898848674618307  0.9955530191145243  1.0000
  C   C94       1.0  0.9679917917253249  0.1101146042375092  0.49555226364856947  1.0000
  C   C95       1.0  0.0320073752737855  0.1101156696787697  0.004447158211668498  1.0000
  C   C96       1.0  0.46799164614063216  0.3898858220539338  0.5044479519337983  1.0000
  C   C97       1.0  0.42854048271089334  0.9493883965104641  0.29807553414399013  1.0000
  C   C98       1.0  0.071460720056173  0.5506112718684831  0.7980754105719823  1.0000
  C   C99       1.0  0.9285393113406643  0.550611704692585  0.7019240534498363  1.0000
  C   C100      1.0  0.571459898414659  0.9493876663439166  0.2019232183454065  1.0000
  C   C101      1.0  0.5714611893821128  0.0506101587403833  0.7019248583726423  1.0000
  C   C102      1.0  0.9285397337110126  0.4493895071680142  0.2019249819428168  1.0000
  C   C103      1.0  0.0714611424258891  0.4493895191018564  0.2980756811446952  1.0000
  C   C104      1.0  0.4285387278570596  0.05061044415032969  0.7980755293702158  1.0000
  C   C105      1.0  0.38608787149019724  0.9042886326323937  0.3263411020314492  1.0000
  C   C106      1.0  0.1139121946645787  0.5957114189944334  0.8263409605682239  1.0000
  C   C107      1.0  0.886087901976296  0.595712325572336  0.673658449805842  1.0000
  C   C108      1.0  0.6139106169008101  0.9042862174576455  0.1736583620251864  1.0000
  C   C109      1.0  0.6139107547843992  0.09571081213209712  0.6736589615233726  1.0000
  C   C110      1.0  0.8860888682660004  0.40428891528507893  0.17365943194709385  1.0000
  C   C111      1.0  0.1139113334639461  0.4042897877357276  0.3263416137476511  1.0000
  C   C112      1.0  0.38608861853526116  0.09571144827889096  0.8263410436109522  1.0000
  C   C113      1.0  0.42524616948998784  0.8803802381910018  0.3631589937347286  1.0000
  C   C114      1.0  0.0747533939398366  0.6196197333163408  0.8631584618900162  1.0000
  C   C115      1.0  0.9252461281228576  0.6196203052470393  0.6368402621246075  1.0000
  C   C116      1.0  0.5747522843140372  0.8803769836308746  0.13684082772189038  1.0000
  C   C117      1.0  0.5747536751125183  0.11961920657359566  0.6368413987806035  1.0000
  C   C118      1.0  0.9252482781538162  0.3803797114489526  0.13684193062609035  1.0000
  C   C119      1.0  0.074753716480302  0.3803813633043944  0.36315947246940533  1.0000
  C   C120      1.0  0.42524816944850136  0.11961934783445825  0.8631585779155555  1.0000
  C   C121      1.0  0.3862444710130076  0.8388594387562163  0.38983107871238326  1.0000
  C   C122      1.0  0.1137563878522059  0.6611409194678827  0.8898302013681202  1.0000
  C   C123      1.0  0.8862438034399673  0.6611415195685381  0.6101681442965228  1.0000
  C   C124      1.0  0.6137539227266943  0.8388567168641642  0.1101694500536894  1.0000
  C   C125      1.0  0.6137541552631802  0.16114089552200275  0.6101696427619103  1.0000
  C   C126      1.0  0.8862446750778972  0.33885941481198495  0.11016986218719887  1.0000
  C   C127      1.0  0.11375543199692828  0.33885925946964324  0.38983027445777196  1.0000
  C   C128      1.0  0.3862465310369814  0.16114183838764257  0.8898296266224363  1.0000
  C   C129      1.0  0.30712138591436394  0.8199154301287307  0.3798086323727219  1.0000
  C   C130      1.0  0.19287822564842833  0.6800849499051294  0.8798074701765939  1.0000
  C   C131      1.0  0.8071213838864395  0.6800859123543574  0.6201915108732903  1.0000
  C   C132      1.0  0.6928769804195696  0.8199131917828097  0.12019126100731367  1.0000
  C   C133      1.0  0.6928778495250612  0.18008490415008532  0.6201917601418285  1.0000
  C   C134      1.0  0.807121618953765  0.3199153843746316  0.12019226441821469  1.0000
  C   C135      1.0  0.1928778515518843  0.31991486668275826  0.3798078947609936  1.0000
  C   C136      1.0  0.3071240825073502  0.1800853634695868  0.8798074867090687  1.0000
  C   C137      1.0  0.2676347490683924  0.8443397428069088  0.3430075171842617  1.0000
  C   C138      1.0  0.23236597443300164  0.6556607173090824  0.8430077331401191  1.0000
  C   C139      1.0  0.7676354272611334  0.6556620141927066  0.6569919348834147  1.0000
  C   C140      1.0  0.7323642617617877  0.844337899377713  0.15699168922262166  1.0000
  C   C141      1.0  0.7323644863704075  0.15566103622984426  0.6569922174100211  1.0000
  C   C142      1.0  0.7676350884967816  0.34433917221356575  0.1569923304154628  1.0000
  C   C143      1.0  0.23236502650541974  0.3443392096017347  0.34300779971111683  1.0000
  C   C144      1.0  0.2676361920030033  0.15566154538819177  0.8430077164129769  1.0000
  C   C145      1.0  0.30665167701756957  0.8859930796871962  0.31653149229352096  1.0000
  C   C146      1.0  0.19334836077672427  0.6140065485298294  0.8165307380542755  1.0000
  C   C147      1.0  0.8066523714945929  0.6140078176791944  0.6834686505574297  1.0000
  C   C148      1.0  0.6933480032354069  0.8859915935177937  0.18346865144597757  1.0000
  C   C149      1.0  0.6933475584221611  0.11400636507644887  0.683469558141553  1.0000
  C   C150      1.0  0.8066533113169286  0.3859928962354643  0.18346965446182384  1.0000
  C   C151      1.0  0.19334686394437026  0.3859938508723672  0.3165307550763288  1.0000
  C   C152      1.0  0.3066530596932608  0.1140074064907566  0.8165310831501387  1.0000
  C   C153      1.0  0.08104827231608881  0.6106802896241773  0.2943695259057435  1.0000
  C   C154      1.0  0.41895352890185916  0.8893198315763015  0.7943699500358503  1.0000
  C   C155      1.0  0.581045774157424  0.8893195454441453  0.7056297690057035  1.0000
  C   C156      1.0  0.9189516188213388  0.6106798175265027  0.20562995844313284  1.0000
  C   C157      1.0  0.9189515722872059  0.38931959989728426  0.7056311955693244  1.0000
  C   C158      1.0  0.5810487523559899  0.1106796131888643  0.20563077144051078  1.0000
  C   C159      1.0  0.4189516337887653  0.11067856504820378  0.2943702945494024  1.0000
  C   C160      1.0  0.08104517996496698  0.3893209615075223  0.7943714209501207  1.0000
  C   C161      1.0  0.1253899817740702  0.6535339676326328  0.32364498523064356  1.0000
  C   C162      1.0  0.3746112949133078  0.8464656451045582  0.823644765068458  1.0000
  C   C163      1.0  0.6253861186579213  0.846465456639045  0.6763533601481269  1.0000
  C   C164      1.0  0.8746099713577068  0.653533525281176  0.17635477710296496  1.0000
  C   C165      1.0  0.8746110811560186  0.34646503237484433  0.6763557362454691  1.0000
  C   C166      1.0  0.625389158852279  0.15353424441821056  0.17635496952686938  1.0000
  C   C167      1.0  0.37461068012329685  0.15353354336895106  0.323645387566195  1.0000
  C   C168      1.0  0.1253874365908771  0.34646591948176564  0.8236462733313414  1.0000
  C   C169      1.0  0.08765540623868161  0.6767151037265291  0.36111580214246425  1.0000
  C   C170      1.0  0.41234536961278684  0.823284872226722  0.8611159702969287  1.0000
  C   C171      1.0  0.5876544470781652  0.8232847364047371  0.6388815245746216  1.0000
  C   C172      1.0  0.9123439712640717  0.676715216572873  0.1388836036561685  1.0000
  C   C173      1.0  0.9123444383644638  0.3232852305525142  0.6388845903723419  1.0000
  C   C174      1.0  0.5876550841520114  0.17671457253918277  0.13888343533866984  1.0000
  C   C175      1.0  0.41234478835761484  0.17671515311935337  0.3611165652202003  1.0000
  C   C176      1.0  0.0876552641769308  0.3232846729472811  0.8611181046986471  1.0000
  C   C177      1.0  0.12920774987706807  0.7158394931891078  0.3886888945165835  1.0000
  C   C178      1.0  0.37079310568812923  0.7841608675189914  0.8886894031718098  1.0000
  C   C179      1.0  0.6292072635696685  0.7841608235225833  0.6113091251186731  1.0000
  C   C180      1.0  0.8707922933877014  0.7158387446995603  0.11131046474361737  1.0000
  C   C181      1.0  0.8707920947254522  0.28416128584787254  0.6113108400779621  1.0000
  C   C182      1.0  0.6292073480774576  0.21583902200377736  0.11131033142351747  1.0000
  C   C183      1.0  0.37079197186675833  0.21583995551595334  0.388688964675623  1.0000
  C   C184      1.0  0.1292099878706168  0.2841607000652501  0.8886905856927425  1.0000
  C   C185      1.0  0.20935176354016954  0.7328007958704174  0.3790697988533793  1.0000
  C   C186      1.0  0.2906484550519508  0.7671991410128169  0.879069931221565  1.0000
  C   C187      1.0  0.7093512805057642  0.767200026977761  0.620928946204401  1.0000
  C   C188      1.0  0.7906476950980449  0.732800409825657  0.12092954023056277  1.0000
  C   C189      1.0  0.7906468627345901  0.2671995384088745  0.6209299357409108  1.0000
  C   C190      1.0  0.7093513895499228  0.23280074850971738  0.12092980337351376  1.0000
  C   C191      1.0  0.2906479549312877  0.2328003073028384  0.3790698015101484  1.0000
  C   C192      1.0  0.2093533678320583  0.2671999244542178  0.8790705233247635  1.0000
  C   C193      1.0  0.24716004741350867  0.7092309421337998  0.3414670692442525  1.0000
  C   C194      1.0  0.2528418899606066  0.790768631820903  0.8414668127718272  1.0000
  C   C195      1.0  0.7471572705303943  0.7907694649118324  0.6585323655775638  1.0000
  C   C196      1.0  0.7528412046194787  0.7092308900626421  0.15853262683703656  1.0000
  C   C197      1.0  0.7528410155164308  0.2907685026312592  0.6585333232715909  1.0000
  C   C198      1.0  0.7471585638049804  0.20923125770186604  0.15853292182350023  1.0000
  C   C199      1.0  0.2528401374158094  0.2092299798528998  0.34146704005674877  1.0000
  C   C200      1.0  0.24715924914707438  0.29077033373179967  0.8414671077574949  1.0000
  C   C201      1.0  0.20562536982291138  0.6701465806241981  0.3140814840531192  1.0000
  C   C202      1.0  0.2943758792158278  0.8298526081673784  0.8140808871124035  1.0000
  C   C203      1.0  0.7056215103239366  0.829853349853593  0.6859179157851472  1.0000
  C   C204      1.0  0.7943746073428813  0.6701469455252606  0.1859189164389932  1.0000
  C   C205      1.0  0.7943750839439331  0.3298524193826892  0.6859195663827364  1.0000
  C   C206      1.0  0.7056239653855627  0.17014728135551843  0.18591851852266925  1.0000
  C   C207      1.0  0.29437467929466976  0.17014520539586897  0.3140818188091785  1.0000
  C   C208      1.0  0.2056221914420036  0.32985383350983705  0.8140814760742641  1.0000
  C   C209      1.0  0.25988379407679224  0.7749339696167677  0.4082794692139941  1.0000
  C   C210      1.0  0.24011711812310924  0.7250663484609061  0.9082792801788953  1.0000
  C   C211      1.0  0.7598843839749846  0.7250668919321225  0.591719976325791  1.0000
  C   C212      1.0  0.7401163346765358  0.7749327189198423  0.09172014871251827  1.0000
  C   C213      1.0  0.740115441361361  0.22506591990553196  0.5917202653808218  1.0000
  C   C214      1.0  0.759883335643444  0.27493487533354255  0.0917204544156434  1.0000
  C   C215      1.0  0.24011606979045302  0.2749334423482209  0.40827942930927447  1.0000
  C   C216      1.0  0.25988655574311537  0.22506539157460276  0.9082799148448968  1.0000
  C   C217      1.0  0.3172932213941095  0.7343036096010135  0.43629736961945287  1.0000
  C   C218      1.0  0.18270716264093065  0.7656962027489981  0.9362974128596375  1.0000
  C   C219      1.0  0.8172937890698294  0.7656968511595817  0.5637014663547574  1.0000
  C   C220      1.0  0.6827074577449609  0.7343023759063171  0.0637019676778792  1.0000
  C   C221      1.0  0.6827066232084035  0.2656971694359668  0.5637023649750927  1.0000
  C   C222      1.0  0.8172939002891725  0.23430413153086957  0.06370265069568148  1.0000
  C   C223      1.0  0.18270605553188796  0.2343034831205344  0.4362979392800526  1.0000
  C   C224      1.0  0.31729726016521187  0.2656961793467686  0.9362974379600357  1.0000
  C   C225      1.0  0.2059606950793551  0.8124740925826471  0.44017308294741037  1.0000
  C   C226      1.0  0.29403848183149256  0.6875248218189896  0.9401726550248878  1.0000
  C   C227      1.0  0.7059611384663852  0.6875253933960221  0.5598266461353631  1.0000
  C   C228      1.0  0.7940388788188315  0.8124742868590148  0.05982681928330179  1.0000
  C   C229      1.0  0.7940391495225185  0.18752579693988736  0.5598266516476612  1.0000
  C   C230      1.0  0.7059601444421446  0.31247462294621187  0.0598267506099361  1.0000
  C   C231      1.0  0.2940387061358082  0.3124749408837387  0.4401730884594456  1.0000
  C   C232      1.0  0.205964620765819  0.18752560266455728  0.9401732442733105  1.0000
  N   N1        1.0  0.15918364168513924  0.5290150184780771  0.17393669387914196  1.0000
  N   N2        1.0  0.34081598387288636  0.9709844752825203  0.673936626095269  1.0000
  N   N3        1.0  0.6591828281630114  0.970984876431785  0.8260633247639928  1.0000
  N   N4        1.0  0.8408167404758302  0.529014669221162  0.3260628876122951  1.0000
  N   N5        1.0  0.840815593755252  0.47098665007240464  0.8260636986346126  1.0000
  N   N6        1.0  0.6591838607283407  0.029014524725567998  0.32606310850032827  1.0000
  N   N7        1.0  0.34081640727529816  0.029014568332932787  0.1739367387910917  1.0000
  N   N8        1.0  0.1591849316165508  0.4709843307876226  0.6739368469840767  1.0000
  N   N9        1.0  0.3492310042661941  0.5151169728816212  0.08189574825910738  1.0000
  N   N10       1.0  0.1507659185534749  0.9848858344683218  0.5818968197090867  1.0000
  N   N11       1.0  0.8492335227549289  0.9848848466119763  0.9181027856553283  1.0000
  N   N12       1.0  0.6507693577917519  0.5151167225371225  0.4181054945642515  1.0000
  N   N13       1.0  0.6507682311730675  0.4848824718823791  0.9181049732159748  1.0000
  N   N14       1.0  0.8492339260488893  0.0151153893262403  0.4181025859251902  1.0000
  N   N15       1.0  0.1507681493387381  0.015115932425707999  0.08189694893998478  1.0000
  N   N16       1.0  0.34923596928897643  0.4848840564983803  0.5818975296325917  1.0000
  O   O1        1.0  0.3540226323543508  0.41441191617563083  0.09513019988654037  1.0000
  O   O2        1.0  0.14596324961993903  0.08558448588385659  0.5951333870689055  1.0000
  O   O3        1.0  0.854033672395836  0.08558530953742148  0.9048666301097369  1.0000
  O   O4        1.0  0.6459727107116605  0.41441480425983457  0.40487083376344657  1.0000
  O   O5        1.0  0.6459711206076477  0.5855875285891371  0.904867889906235  1.0000
  O   O6        1.0  0.8540341583251418  0.9144140693667849  0.4048656896059341  1.0000
  O   O7        1.0  0.14596678137023386  0.914414579984985  0.09513343344558928  1.0000
  O   O8        1.0  0.3540344438617992  0.5855855300177166  0.5951335062744219  1.0000
  O   O9        1.0  0.3477934361138749  0.6165087330072793  0.0714367331461503  1.0000
  O   O10       1.0  0.15220650228579302  0.8834918733178723  0.571437597456999  1.0000
  O   O11       1.0  0.8477952289957713  0.8834913063568661  0.9285611416382193  1.0000
  O   O12       1.0  0.6522052451282433  0.6165089057623305  0.4285627442687883  1.0000
  O   O13       1.0  0.652207626818125  0.38349160127115295  0.9285646462491639  1.0000
  O   O14       1.0  0.8477945606403379  0.11650757145005029  0.4285601633788615  1.0000
  O   O15       1.0  0.1522058339351346  0.11650947267987277  0.0714392508768356  1.0000
  O   O16       1.0  0.34779459947729646  0.38349276278731975  0.5714386351252186  1.0000
  O   O17       1.0  0.4988672461375856  0.966157535945456  0.3108503863832154  1.0000
  O   O18       1.0  0.0011339935601526003  0.5338421046348073  0.8108495656043925  1.0000
  O   O19       1.0  0.9988660135765174  0.5338421743615739  0.6891492604448854  1.0000
  O   O20       1.0  0.5011337684109024  0.9661572244745639  0.18914834615897994  1.0000
  O   O21       1.0  0.5011338167921833  0.033841019304801996  0.68915033509316  1.0000
  O   O22       1.0  0.998865851041728  0.4661591191601173  0.18914951106988548  1.0000
  O   O23       1.0  0.0011350493543957998  0.4661599389475553  0.310850474149376  1.0000
  O   O24       1.0  0.49886424869615803  0.0338408860201653  0.810849743636389  1.0000
  O   O25       1.0  0.39126510952742427  0.9674922621475587  0.2640005151564822  1.0000
  O   O26       1.0  0.10873721305690512  0.5325074803830389  0.7640001155557029  1.0000
  O   O27       1.0  0.8912640104755523  0.5325069209936469  0.7359983831220233  1.0000
  O   O28       1.0  0.6087352977882007  0.9674919311355055  0.23599821579778524  1.0000
  O   O29       1.0  0.6087365625659089  0.032506737860508395  0.7359998773598875  1.0000
  O   O30       1.0  0.8912644590373942  0.46749285389670076  0.23600027695987078  1.0000
  O   O31       1.0  0.10873583412394078  0.46749296853067074  0.2639997066730544  1.0000
  O   O32       1.0  0.3912615009918952  0.032506179358392694  0.7640002029570708  1.0000
  O   O33       1.0  0.1178886041449516  0.5942203215321838  0.2595060415708303  1.0000
  O   O34       1.0  0.3821112687906662  0.9057798755357496  0.7595050992511572  1.0000
  O   O35       1.0  0.6178862305861726  0.9057786522370321  0.7404929554106586  1.0000
  O   O36       1.0  0.8821106540187812  0.5942201901087144  0.24049444923702615  1.0000
  O   O37       1.0  0.8821124587849809  0.40577912323287524  0.7404943509450133  1.0000
  O   O38       1.0  0.6178897941384847  0.09422045874482879  0.2404943063841642  1.0000
  O   O39       1.0  0.38211056819486083  0.09421812398376521  0.25950677918498843  1.0000
  O   O40       1.0  0.11788675393283649  0.40578147843928025  0.7595075880759551  1.0000
  O   O41       1.0  0.0108348497549358  0.5938070495754386  0.3068384061688291  1.0000
  O   O42       1.0  0.4891639416911318  0.9061930444905713  0.8068385404052376  1.0000
  O   O43       1.0  0.5108311216304741  0.9061931764759305  0.6931601716832672  1.0000
  O   O44       1.0  0.9891631894830083  0.5938075478992458  0.19316142720974477  1.0000
  O   O45       1.0  0.9891649948482097  0.4061932847036047  0.6931619863459773  1.0000
  O   O46       1.0  0.5108359029107206  0.093805510759573  0.19316185211062725  1.0000
  O   O47       1.0  0.48916567715106385  0.09380626828929191  0.30683857603079184  1.0000
  O   O48       1.0  0.010833609303297497  0.40619323113477884  0.8068399521835159  1.0000
  F   F1        1.0  0.35509250913091245  0.763512128575364  0.4700503088492097  1.0000
  F   F2        1.0  0.14491162746540448  0.7364867208108732  0.9700510129184747  1.0000
  F   F3        1.0  0.8550917186459657  0.7364879163768663  0.5299485589618484  1.0000
  F   F4        1.0  0.6449088214259716  0.7635113841391642  0.029948664744011897  1.0000
  F   F5        1.0  0.6449079446337294  0.23648776094812257  0.5299487678261199  1.0000
  F   F6        1.0  0.8550949179410097  0.26351361346895164  0.029951024399153398  1.0000
  F   F7        1.0  0.14490934428366836  0.2635124179033567  0.47005117563347193  1.0000
  F   F8        1.0  0.3550971148090838  0.23648628160136548  0.9700494250549593  1.0000
  F   F9        1.0  0.3771508122876881  0.7101128700048844  0.41084215554329956  1.0000
  F   F10       1.0  0.1228476706663457  0.7898856634650425  0.9108431064718869  1.0000
  F   F11       1.0  0.8771514885479732  0.7898867470848573  0.5891564018876564  1.0000
  F   F12       1.0  0.6228498318550564  0.7101115350743042  0.08915655260943108  1.0000
  F   F13       1.0  0.622847813985473  0.28988657476067897  0.5891569211315256  1.0000
  F   F14       1.0  0.877149737280476  0.2101120022693621  0.0891576150034794  1.0000
  F   F15       1.0  0.122848356054206  0.21011225292251368  0.41084399062793847  1.0000
  F   F16       1.0  0.37715427689124675  0.2898874649361288  0.9108425240679664  1.0000
  F   F17       1.0  0.27598704132365975  0.6881644592267121  0.4547296663219241  1.0000
  F   F18       1.0  0.22401278683370413  0.811835757770737  0.9547287025891504  1.0000
  F   F19       1.0  0.7759882316223283  0.8118355251416883  0.545269134861904  1.0000
  F   F20       1.0  0.7240135710696762  0.6881646315495188  0.0452697258579562  1.0000
  F   F21       1.0  0.724011584951576  0.31183587505221766  0.5452703972323717  1.0000
  F   F22       1.0  0.775987666930483  0.18816680029788554  0.0452687292846008  1.0000
  F   F23       1.0  0.2240128313063465  0.18816480913925196  0.45472994181341864  1.0000
  F   F24       1.0  0.2759911468424007  0.31183392370213164  0.9547309956199611  1.0000
  F   F25       1.0  0.1699768079324073  0.7793547521094267  0.4725164345794965  1.0000
  F   F26       1.0  0.33001941666435636  0.7206427576353531  0.9725173134085805  1.0000
  F   F27       1.0  0.6699765965622575  0.7206438167962401  0.5274826062754271  1.0000
  F   F28       1.0  0.8300233272184413  0.7793559338420973  0.027483507046959198  1.0000
  F   F29       1.0  0.8300224275062219  0.22064513741251796  0.5274836289753182  1.0000
  F   F30       1.0  0.6699761637933932  0.2793571318841117  0.027483737024688492  1.0000
  F   F31       1.0  0.33002142054862554  0.27935696224039924  0.4725167993583454  1.0000
  F   F32       1.0  0.16998199985974338  0.22064395568038722  0.9725182013104143  1.0000
  F   F33       1.0  0.14489323856387407  0.8404195242923648  0.4177583642065272  1.0000
  F   F34       1.0  0.3551077010391595  0.6595816626731902  0.9177576920002648  1.0000
  F   F35       1.0  0.6448930971622175  0.6595812491872407  0.5822419713599913  1.0000
  F   F36       1.0  0.8551069849259534  0.8404183822889094  0.08224282062361969  1.0000
  F   F37       1.0  0.8551066060395982  0.15958125474389817  0.5822420283080092  1.0000
  F   F38       1.0  0.6448921435644621  0.34041867160549083  0.08224302947454017  1.0000
  F   F39       1.0  0.3551067474406154  0.3404199746069664  0.4177577632342845  1.0000
  F   F40       1.0  0.14489346884297302  0.1595828415037417  0.917758558770913  1.0000
  F   F41       1.0  0.24948306705167062  0.8556764693794032  0.4607745244698832  1.0000
  F   F42       1.0  0.25051677857720017  0.6443210659219928  0.960772137520969  1.0000
  F   F43       1.0  0.7494827792195055  0.6443230499307971  0.5392258991901143  1.0000
  F   F44       1.0  0.7505183968377267  0.8556771199110995  0.03922631325129089  1.0000
  F   F45       1.0  0.7505173867140726  0.14432297538578348  0.539225539085713  1.0000
  F   F46       1.0  0.7494800202030659  0.3556779340867208  0.03922595227335529  1.0000
  F   F47       1.0  0.2505158470547926  0.35567861862124756  0.46077284852339057  1.0000
  F   F48       1.0  0.24948510274501248  0.14432143534151715  0.9607730923861123  1.0000
