data_image0
_chemical_formula_structural       Al12H132C216O84
_chemical_formula_sum              "Al12 H132 C216 O84"
_cell_length_a       17.139286999173454
_cell_length_b       20.252665314988654
_cell_length_c       20.252729179023007
_cell_angle_alpha    96.70321556703261
_cell_angle_beta     90.00045699875551
_cell_angle_gamma    89.99971097615875

_space_group_name_H-M_alt    "P 1"
_space_group_IT_number       1

loop_
  _space_group_symop_operation_xyz
  'x, y, z'

loop_
  _atom_site_type_symbol
  _atom_site_label
  _atom_site_symmetry_multiplicity
  _atom_site_fract_x
  _atom_site_fract_y
  _atom_site_fract_z
  _atom_site_occupancy
  Al  Al1       1.0  0.163557884587469  0.9164441834088423  0.02726824471589142  1.0000
  Al  Al2       1.0  0.16355280357943508  0.5835535138876154  0.4727356649280095  1.0000
  Al  Al3       1.0  0.3364455710534671  0.972736722792611  0.08355843404869032  1.0000
  Al  Al4       1.0  0.3364455454249581  0.5272672784623966  0.41644286793876256  1.0000
  Al  Al5       1.0  0.8364451957103539  0.08355704825371649  0.972733875436894  1.0000
  Al  Al6       1.0  0.8364456090780339  0.416442717284717  0.52726295731415  1.0000
  Al  Al7       1.0  0.6635522581506309  0.027265508007999997  0.9164442868058696  1.0000
  Al  Al8       1.0  0.6635581183233582  0.4727319452321553  0.5835570621715431  1.0000
  Al  Al9       1.0  0.9999999879173417  0.9999985232615886  0.9999979768268116  1.0000
  Al  Al10      1.0  2.8568256739999934e-07  0.49999550640167456  0.4999958706887069  1.0000
  Al  Al11      1.0  0.4999957116422137  2.6043354353e-06  2.9461184495999983e-06  1.0000
  Al  Al12      1.0  0.5000012484205456  0.49999911471130076  0.49999991184596826  1.0000
  H   H1        1.0  0.43515325020892703  0.803171218734413  0.09106218540913602  1.0000
  H   H2        1.0  0.43514164396091803  0.6968259944739688  0.4089415222005711  1.0000
  H   H3        1.0  0.06484573104374651  0.9089467025207725  0.19683483646152664  1.0000
  H   H4        1.0  0.06485242761779382  0.5910617987717542  0.3031710476210349  1.0000
  H   H5        1.0  0.5648527473571151  0.1968314994792735  0.9089396000711569  1.0000
  H   H6        1.0  0.564849767208358  0.30317017359921283  0.5910506740706791  1.0000
  H   H7        1.0  0.9351480139828325  0.09105953936627742  0.8031717701650007  1.0000
  H   H8        1.0  0.9351605714195727  0.4089374491799377  0.6968313540375985  1.0000
  H   H9        1.0  0.4989012509755355  0.6910433200854983  0.08573364148075768  1.0000
  H   H10       1.0  0.49888669467552654  0.8089586241791911  0.4142695194626994  1.0000
  H   H11       1.0  0.0011055521546055002  0.9142693149329871  0.3089654366125031  1.0000
  H   H12       1.0  0.001104806113311  0.5857359418502243  0.19104065947121274  1.0000
  H   H13       1.0  0.5011105811280318  0.3089628732221784  0.9142680221656289  1.0000
  H   H14       1.0  0.5011047164968687  0.1910400489979693  0.5857249200602154  1.0000
  H   H15       1.0  0.9988928605323794  0.08573097586589988  0.6910420144520371  1.0000
  H   H16       1.0  0.99890119146977  0.41426081557408884  0.8089609818248032  1.0000
  H   H17       1.0  0.2916352121282415  0.6011544023373361  0.9937154072544554  1.0000
  H   H18       1.0  0.2916133611222235  0.8988464905143587  0.5062752089159587  1.0000
  H   H19       1.0  0.20838042313933158  0.006282742673079199  0.3988498072486378  1.0000
  H   H20       1.0  0.20837407176286862  0.4937244833432999  0.10115168061779656  1.0000
  H   H21       1.0  0.7083836213924853  0.3988467079289748  0.006274355354591408  1.0000
  H   H22       1.0  0.7083809673149942  0.10115316236745292  0.4937178541196302  1.0000
  H   H23       1.0  0.7916220737104498  0.9937195026834685  0.6011543965319601  1.0000
  H   H24       1.0  0.7916348430662339  0.5062752132052921  0.8988458311977535  1.0000
  H   H25       1.0  0.230778218197031  0.7132353180077261  0.9964855745492042  1.0000
  H   H26       1.0  0.23076167486733823  0.7867642989402412  0.503504496164872  1.0000
  H   H27       1.0  0.2692278255415985  0.0035141709935188996  0.2867644217147002  1.0000
  H   H28       1.0  0.2692295149906627  0.49649081699472936  0.21323377901200047  1.0000
  H   H29       1.0  0.7692341973356775  0.2867643251325944  0.003506499936229106  1.0000
  H   H30       1.0  0.7692297362745605  0.21323730851163702  0.49648531956458425  1.0000
  H   H31       1.0  0.7307694201947186  0.996489531800215  0.7132364815450244  1.0000
  H   H32       1.0  0.7307799832946528  0.5035073832870725  0.7867630788796516  1.0000
  H   H33       1.0  0.5640694639445486  0.4406110435609988  0.7540553646801765  1.0000
  H   H34       1.0  0.564068224790482  0.0593917527854089  0.7459478628130253  1.0000
  H   H35       1.0  0.935928235024491  0.24594008514283416  0.559390185529807  1.0000
  H   H36       1.0  0.9359375913208652  0.2540558335509715  0.9406054226386042  1.0000
  H   H37       1.0  0.43593361635079475  0.5593996773973303  0.24595221514570645  1.0000
  H   H38       1.0  0.4359290209628456  0.9406144842407044  0.2540582495208525  1.0000
  H   H39       1.0  0.0640713445259351  0.7540516135375414  0.4406020262050701  1.0000
  H   H40       1.0  0.06406957316629298  0.745947908063073  0.059399435082546886  1.0000
  H   H41       1.0  0.4906002122965419  0.41802895510099347  0.8563811898961259  1.0000
  H   H42       1.0  0.4905972915712909  0.0819635984409359  0.6436140284724272  1.0000
  H   H43       1.0  0.009403522145745996  0.14361261361942476  0.5819676067038981  1.0000
  H   H44       1.0  0.0094120576247008  0.35638871071651584  0.9180361803581786  1.0000
  H   H45       1.0  0.5094017010785165  0.5819747476844697  0.14361971337839916  1.0000
  H   H46       1.0  0.5094057887219066  0.9180376235121558  0.356387103072869  1.0000
  H   H47       1.0  0.9905966408774702  0.8563831204128008  0.4180309623364662  1.0000
  H   H48       1.0  0.9905991910425342  0.643617521430066  0.08196943771634577  1.0000
  H   H49       1.0  0.27480244321853314  0.4599841382733843  0.7602386000073975  1.0000
  H   H50       1.0  0.27479951057867424  0.04001017861549629  0.7397558508584863  1.0000
  H   H51       1.0  0.2251973131268272  0.23976289541582227  0.5400147178653893  1.0000
  H   H52       1.0  0.22520389797158202  0.2602361441800554  0.9599873119418443  1.0000
  H   H53       1.0  0.725200637077535  0.5400130920194359  0.23976062296797093  1.0000
  H   H54       1.0  0.7251965682332723  0.9599909948026522  0.2602403376271453  1.0000
  H   H55       1.0  0.7748028499222386  0.7602383896539848  0.4599928396193674  1.0000
  H   H56       1.0  0.7748050168918398  0.7397581275540475  0.0400140633267441  1.0000
  H   H57       1.0  0.34890999859306493  0.48235301675482134  0.6586548292621683  1.0000
  H   H58       1.0  0.3489017377885304  0.017649498740368596  0.8413419845826265  1.0000
  H   H59       1.0  0.15108588833776082  0.3413428444558376  0.5176462496479813  1.0000
  H   H60       1.0  0.1510962048579358  0.1586504094142853  0.9823462686312179  1.0000
  H   H61       1.0  0.6510965824212961  0.5176466895073731  0.34134367115348846  1.0000
  H   H62       1.0  0.6510879230310137  0.9823566946065653  0.15865967899348016  1.0000
  H   H63       1.0  0.8489090235858826  0.6586543761419746  0.4823519846939986  1.0000
  H   H64       1.0  0.8489074588887674  0.8413438137817764  0.017650163583255087  1.0000
  H   H65       1.0  0.48666796656738837  0.2036135384385744  0.028772536246989895  1.0000
  H   H66       1.0  0.48668494464319406  0.29638172131257084  0.47122509682281316  1.0000
  H   H67       1.0  0.013314720821377102  0.9712312296499802  0.7963854831371078  1.0000
  H   H68       1.0  0.013312097975053  0.5287772329509508  0.7036164177498916  1.0000
  H   H69       1.0  0.5133111920618917  0.7963816548012231  0.971221530785733  1.0000
  H   H70       1.0  0.513315218378132  0.7036110104786671  0.5287711757585567  1.0000
  H   H71       1.0  0.9866889429161816  0.028770470020148802  0.20361372440238054  1.0000
  H   H72       1.0  0.9866723117807366  0.4712225267525769  0.2963875199366938  1.0000
  H   H73       1.0  0.4576279465122397  0.3250367120017117  0.04049310773221038  1.0000
  H   H74       1.0  0.457631532927337  0.17495816804158443  0.4595057708768093  1.0000
  H   H75       1.0  0.042367317658829506  0.9595089340752241  0.6749636602330467  1.0000
  H   H76       1.0  0.0423599343748933  0.5404994256483562  0.8250384248408336  1.0000
  H   H77       1.0  0.5423570466540468  0.6749574578253359  0.9594978870818519  1.0000
  H   H78       1.0  0.5423604617431933  0.8250370979964996  0.5404957107528074  1.0000
  H   H79       1.0  0.9576392633673831  0.0404887982031426  0.3250361102645058  1.0000
  H   H80       1.0  0.9576343941000116  0.45950380428720183  0.17496489672104323  1.0000
  H   H81       1.0  0.23435313056064908  0.28816348594412494  0.12685705524823015  1.0000
  H   H82       1.0  0.23435801805661072  0.2118485854605225  0.373141669275526  1.0000
  H   H83       1.0  0.2656349119651438  0.8731435474100024  0.711849760331553  1.0000
  H   H84       1.0  0.2656360032353575  0.6268600785141061  0.7881567748186665  1.0000
  H   H85       1.0  0.7656341964080794  0.711844140561155  0.8731388362975208  1.0000
  H   H86       1.0  0.7656345600281683  0.7881555902048092  0.6268568156580014  1.0000
  H   H87       1.0  0.7343693352365078  0.1268581716780304  0.2881514244247753  1.0000
  H   H88       1.0  0.7343583252035019  0.37313607984444275  0.2118344328543386  1.0000
  H   H89       1.0  0.26488913467529324  0.1658955650131375  0.11584403278042996  1.0000
  H   H90       1.0  0.26490740216084413  0.3341129134149555  0.3841540186378508  1.0000
  H   H91       1.0  0.2350904271685366  0.8841575067289543  0.8341142052905536  1.0000
  H   H92       1.0  0.235096850186487  0.6158442339520463  0.6658914290824993  1.0000
  H   H93       1.0  0.7350917743199616  0.8341141228725563  0.8841594861305208  1.0000
  H   H94       1.0  0.7350956780988724  0.6658877385801105  0.6158396451439001  1.0000
  H   H95       1.0  0.7649155703823922  0.11584567949333291  0.16588466757459486  1.0000
  H   H96       1.0  0.764892227190373  0.384149492132842  0.33410494987839456  1.0000
  H   H97       1.0  0.40596417036702803  0.5363080982923095  0.9135023281766547  1.0000
  H   H98       1.0  0.405956109041675  0.9636839334707759  0.5864876140881063  1.0000
  H   H99       1.0  0.0940414281036368  0.08649128933484461  0.4636883040937858  1.0000
  H   H100      1.0  0.09403961033410012  0.41351342673359437  0.036319059852758094  1.0000
  H   H101      1.0  0.5940447444390813  0.4636905505801892  0.08648963988301257  1.0000
  H   H102      1.0  0.5940388028785718  0.0363127802805607  0.41350957843904707  1.0000
  H   H103      1.0  0.9059622356493122  0.9135079440691811  0.5363126146240162  1.0000
  H   H104      1.0  0.9059605527168557  0.5864908605771929  0.9636907940910003  1.0000
  H   H105      1.0  0.3931455418007417  0.4960539332525827  0.11815818197090515  1.0000
  H   H106      1.0  0.39313657696953896  0.003944070605349698  0.3818317095375645  1.0000
  H   H107      1.0  0.10685950749889632  0.88183328822533  0.5039470850083062  1.0000
  H   H108      1.0  0.10685735771118493  0.6181683560439595  0.9960522457674369  1.0000
  H   H109      1.0  0.6068709579252599  0.5039447301706873  0.8818352690240442  1.0000
  H   H110      1.0  0.6068583349483917  0.9960526382912537  0.6181649886858407  1.0000
  H   H111      1.0  0.8931400720921943  0.11816549174152159  0.4960582292229317  1.0000
  H   H112      1.0  0.8931393045474324  0.3818332999459598  0.003942513016134796  1.0000
  H   H113      1.0  0.3099790378999217  0.35034496478724014  0.9605204140594519  1.0000
  H   H114      1.0  0.3099706497402579  0.14964923239295302  0.5394747541227928  1.0000
  H   H115      1.0  0.1900242660586073  0.0394780206366363  0.6496555881382091  1.0000
  H   H116      1.0  0.1900280443313775  0.4605192326524445  0.8503539146833173  1.0000
  H   H117      1.0  0.6900240423743397  0.6496592157142302  0.03947856521111957  1.0000
  H   H118      1.0  0.6900236787195623  0.8503459705294532  0.46052030156551627  1.0000
  H   H119      1.0  0.809975896973029  0.9605237275870309  0.3503485624276549  1.0000
  H   H120      1.0  0.8099843712883086  0.5394790938472838  0.14965579511500945  1.0000
  H   H121      1.0  0.2499958216491791  0.0044805944132093965  0.9955280491667718  1.0000
  H   H122      1.0  0.2500037187293813  0.49552337727725876  0.5044796129852427  1.0000
  H   H123      1.0  0.7500043413877505  0.9955246628979283  0.004479439672920219  1.0000
  H   H124      1.0  0.7499958608513709  0.5044748812789166  0.49552317651993133  1.0000
  H   H125      1.0  0.11202592226718622  0.026176178865057402  0.07143103240511547  1.0000
  H   H126      1.0  0.11203677635222678  0.47381754618660926  0.42857626365466917  1.0000
  H   H127      1.0  0.38796604069990076  0.9285778739297683  0.9738216115605165  1.0000
  H   H128      1.0  0.3879696612957773  0.5714247391034634  0.5261772428418607  1.0000
  H   H129      1.0  0.8879643220838674  0.9738196814078249  0.928580388501231  1.0000
  H   H130      1.0  0.8879698046498988  0.5261786364239145  0.571417415575908  1.0000
  H   H131      1.0  0.6120323719748484  0.07141889321744088  0.02618101831895099  1.0000
  H   H132      1.0  0.612032835552249  0.42857350488334583  0.47382406376132  1.0000
  C   C1        1.0  0.2933821861959203  0.831964453447846  0.04785654419745813  1.0000
  C   C2        1.0  0.2933758256811316  0.6680342221048862  0.4521429108472644  1.0000
  C   C3        1.0  0.2066185758184034  0.9521482035162449  0.16804073761542773  1.0000
  C   C4        1.0  0.20662638385520896  0.5478528115134508  0.3319628289305782  1.0000
  C   C5        1.0  0.7066226444745921  0.1680362956388137  0.952147005664784  1.0000
  C   C6        1.0  0.7066237538873851  0.33196051279961847  0.5478550574728371  1.0000
  C   C7        1.0  0.7933734188452987  0.047854543850640086  0.8319640136429595  1.0000
  C   C8        1.0  0.7933883655243577  0.45214888813704607  0.6680363786440535  1.0000
  C   C9        1.0  0.3291971593569727  0.7648893911020167  0.04398663535226889  1.0000
  C   C10       1.0  0.3291846020919423  0.7351131347239459  0.4560134724089051  1.0000
  C   C11       1.0  0.17080700543531444  0.9560191188104383  0.23511379776428493  1.0000
  C   C12       1.0  0.1708095369881946  0.5439874575743247  0.2648866668636102  1.0000
  C   C13       1.0  0.6708111720318399  0.23511383395401717  0.9560161919502546  1.0000
  C   C14       1.0  0.6708103098078624  0.26488903297028094  0.5439828224876918  1.0000
  C   C15       1.0  0.8291902403185675  0.043983121700677  0.7648899116959169  1.0000
  C   C16       1.0  0.8291976274810081  0.4560122486868394  0.735111833553894  1.0000
  C   C17       1.0  0.4048457184611324  0.758576670193193  0.06930750922263937  1.0000
  C   C18       1.0  0.40483113481354854  0.7414206260767457  0.4306935347002676  1.0000
  C   C19       1.0  0.0951563555134456  0.9306978091175682  0.24142737238233275  1.0000
  C   C20       1.0  0.0951621778394909  0.5693105605619238  0.25857623235695115  1.0000
  C   C21       1.0  0.5951620294580094  0.24142502461496917  0.9306912040260539  1.0000
  C   C22       1.0  0.5951614432816115  0.25857557597750974  0.5693021217009073  1.0000
  C   C23       1.0  0.9048373895207787  0.06930345168992601  0.7585777135633405  1.0000
  C   C24       1.0  0.9048490708242342  0.43068766884518084  0.7414235913627321  1.0000
  C   C25       1.0  0.44011806879547066  0.6967614434514573  0.06667061075524568  1.0000
  C   C26       1.0  0.44010605990153107  0.8032357813038121  0.4333360941540717  1.0000
  C   C27       1.0  0.059886210124219005  0.9333346383842597  0.3032418860805207  1.0000
  C   C28       1.0  0.05988796510728632  0.5666733590698029  0.19676144181548944  1.0000
  C   C29       1.0  0.5598920129546058  0.3032402756262442  0.9333305740195781  1.0000
  C   C30       1.0  0.5598859347397324  0.1967619218719676  0.5666607104747567  1.0000
  C   C31       1.0  0.9401104521949719  0.06666414644249129  0.6967639224452211  1.0000
  C   C32       1.0  0.9401203662950196  0.4333243974791331  0.8032408002063459  1.0000
  C   C33       1.0  0.3991683292096866  0.6402641294665586  0.03920927510822742  1.0000
  C   C34       1.0  0.39915390934660894  0.8597336354984578  0.4607868429887531  1.0000
  C   C35       1.0  0.10083909005324898  0.9607875761271174  0.35973952934198633  1.0000
  C   C36       1.0  0.10083755874688188  0.5392138280868508  0.14026484941273756  1.0000
  C   C37       1.0  0.6008435028899585  0.35973705848789456  0.9607883963385856  1.0000
  C   C38       1.0  0.6008415860283379  0.14026407738059993  0.5392109502586633  1.0000
  C   C39       1.0  0.8991604895415222  0.03920971242870759  0.640265625267247  1.0000
  C   C40       1.0  0.8991696057374342  0.4607854101657055  0.8597365636199112  1.0000
  C   C41       1.0  0.32344509384471115  0.6453060963172206  0.014351849312653488  1.0000
  C   C42       1.0  0.3234251035331255  0.8546968984817197  0.48564333212504335  1.0000
  C   C43       1.0  0.176562095748686  0.985649630785936  0.35470162493790264  1.0000
  C   C44       1.0  0.17656134311111774  0.5143529869655836  0.14530240493983368  1.0000
  C   C45       1.0  0.6765690720576883  0.3546980550362164  0.9856441641705797  1.0000
  C   C46       1.0  0.6765645572735153  0.14530227183555414  0.514351160599652  1.0000
  C   C47       1.0  0.8234369003945048  0.0143491637461537  0.6453051722027323  1.0000
  C   C48       1.0  0.8234458213714432  0.4856422499172339  0.854696110915398  1.0000
  C   C49       1.0  0.28925388007557024  0.7079243170108143  0.016378951977252094  1.0000
  C   C50       1.0  0.2892418277667518  0.7920753577363728  0.4836195946819257  1.0000
  C   C51       1.0  0.21074875986293054  0.9836251249721712  0.29207765752715176  1.0000
  C   C52       1.0  0.2107515023636068  0.5163788388431385  0.20792427721839593  1.0000
  C   C53       1.0  0.7107550347640128  0.29207490181970297  0.9836204838459534  1.0000
  C   C54       1.0  0.7107513337594114  0.20792579141326684  0.5163741222757137  1.0000
  C   C55       1.0  0.7892479024396549  0.016376623257698997  0.7079264930276137  1.0000
  C   C56       1.0  0.7892579959405026  0.4836174020190355  0.7920753336663962  1.0000
  C   C57       1.0  0.505484124945248  0.4743171882581406  0.6398116816007755  1.0000
  C   C58       1.0  0.5054736601115978  0.025682364745883  0.8601937677861071  1.0000
  C   C59       1.0  0.994518855508467  0.3601882883486383  0.525680849016197  1.0000
  C   C60       1.0  0.994524540709854  0.1398089045625852  0.9743143016367737  1.0000
  C   C61       1.0  0.4945172049652983  0.5256894924956725  0.360189046612163  1.0000
  C   C62       1.0  0.49452008492261956  0.9743188960616108  0.13981131815956616  1.0000
  C   C63       1.0  0.0054766398647246  0.6398054231606806  0.4743140470538022  1.0000
  C   C64       1.0  0.0054832072513519995  0.8601898802445404  0.025691506924111693  1.0000
  C   C65       1.0  0.4609038274543096  0.46269359184046266  0.7004470364509243  1.0000
  C   C66       1.0  0.4608991403527725  0.03730510048065129  0.799555552368737  1.0000
  C   C67       1.0  0.03909719915409231  0.2995508395079581  0.5373042109860646  1.0000
  C   C68       1.0  0.039103581378654405  0.20044530150148177  0.9626883575800061  1.0000
  C   C69       1.0  0.5391027535647908  0.5373136200242004  0.2995572051122294  1.0000
  C   C70       1.0  0.5390975219424449  0.9626996305712722  0.20044891743004456  1.0000
  C   C71       1.0  0.9609012134933083  0.700442871996195  0.46269068509318584  1.0000
  C   C72       1.0  0.9609035831143516  0.7995579526850207  0.037317435541304185  1.0000
  C   C73       1.0  0.5007611104207897  0.4451275876443077  0.7564035692066964  1.0000
  C   C74       1.0  0.5007552083519685  0.0548694429904302  0.7435961468714678  1.0000
  C   C75       1.0  0.9992394891504404  0.24359378353577202  0.5548715029507105  1.0000
  C   C76       1.0  0.9992494575241649  0.25640690659258786  0.9451275102236136  1.0000
  C   C77       1.0  0.4992437202178621  0.5548775919828158  0.24359601078784712  1.0000
  C   C78       1.0  0.49924320429743574  0.9451347666477119  0.256405798206785  1.0000
  C   C79       1.0  0.000757173141551  0.7564009465191646  0.4451259710563986  1.0000
  C   C80       1.0  0.0007606242419768999  0.7435958455969995  0.054877735395855595  1.0000
  C   C81       1.0  0.4601920493027195  0.4323787348709089  0.8130018082165547  1.0000
  C   C82       1.0  0.4601913728580556  0.0676124349423546  0.6869930577404515  1.0000
  C   C83       1.0  0.039809491331190806  0.18699394955920923  0.5676207540536209  1.0000
  C   C84       1.0  0.039817836334023596  0.3130077739449818  0.9323842676054352  1.0000
  C   C85       1.0  0.5398104475333199  0.5676224822284793  0.18699882902314602  1.0000
  C   C86       1.0  0.539812874349451  0.9323887967181365  0.31300906241603593  1.0000
  C   C87       1.0  0.9601900882439833  0.8130027981670054  0.4323798986145561  1.0000
  C   C88       1.0  0.9601934123519982  0.6869964987819727  0.06762410346222937  1.0000
  C   C89       1.0  0.3787854988373597  0.4375109923773978  0.813365658393543  1.0000
  C   C90       1.0  0.37878484947395213  0.0624794860161302  0.6866300679187486  1.0000
  C   C91       1.0  0.12121425478554221  0.1866309956714645  0.5624853414280293  1.0000
  C   C92       1.0  0.12122089565924911  0.31336747129410725  0.9375213600228844  1.0000
  C   C93       1.0  0.6212146641917116  0.562484254227293  0.18663384604698757  1.0000
  C   C94       1.0  0.6212158970049231  0.9375187482643029  0.31337025007138647  1.0000
  C   C95       1.0  0.8787864917061229  0.8133667657456414  0.43751739487350944  1.0000
  C   C96       1.0  0.8787874357622343  0.6866338234707001  0.06248718609526089  1.0000
  C   C97       1.0  0.3381183834990509  0.45572131840872754  0.7584419497519687  1.0000
  C   C98       1.0  0.3381148589983524  0.044271779982473405  0.7415527961389754  1.0000
  C   C99       1.0  0.1618837256120997  0.2415539222238934  0.544274481958979  1.0000
  C   C100      1.0  0.16189086443834097  0.25844086735430954  0.9557266675573001  1.0000
  C   C101      1.0  0.6618852802620623  0.54427743242249  0.24156039866974052  1.0000
  C   C102      1.0  0.6618841371053679  0.9557279311478839  0.2584461985563777  1.0000
  C   C103      1.0  0.8381158539677074  0.7584428352117883  0.4557271593166873  1.0000
  C   C104      1.0  0.8381186338872484  0.7415589165784696  0.04427974172755  1.0000
  C   C105      1.0  0.379382341333411  0.4681050771369898  0.7020377040927526  1.0000
  C   C106      1.0  0.379375337552716  0.0318938310643588  0.7979569532932655  1.0000
  C   C107      1.0  0.12061865594566971  0.2979555711623192  0.5318942035850467  1.0000
  C   C108      1.0  0.12062741348763947  0.2020373128880095  0.9681000455256945  1.0000
  C   C109      1.0  0.620622489319267  0.5318991324897838  0.2979642410058502  1.0000
  C   C110      1.0  0.6206219081927244  0.9681108902770602  0.20204652789986707  1.0000
  C   C111      1.0  0.8793768394295539  0.7020401434592287  0.46810238822553857  1.0000
  C   C112      1.0  0.8793815013654083  0.79796493245717  0.031904158275253336  1.0000
  C   C113      1.0  0.3940939776806688  0.1048181926007885  0.06350754596412139  1.0000
  C   C114      1.0  0.39409837225674954  0.39518433065515524  0.4364877735035505  1.0000
  C   C115      1.0  0.10589440312013922  0.9364908825048561  0.8951875818113703  1.0000
  C   C116      1.0  0.10589356040962632  0.56350533065595  0.6048146176950124  1.0000
  C   C117      1.0  0.6058880982564219  0.8951850664848706  0.9364987413813988  1.0000
  C   C118      1.0  0.6058971231064872  0.604814357078979  0.5635081489435476  1.0000
  C   C119      1.0  0.8941127613806471  0.0635063914733394  0.10481608991067044  1.0000
  C   C120      1.0  0.8940990177043205  0.43648891197867806  0.3951837916993027  1.0000
  C   C121      1.0  0.377297301099226  0.17736036332935606  0.07136334118180797  1.0000
  C   C122      1.0  0.3773131384719832  0.32264525075884626  0.42863713410777377  1.0000
  C   C123      1.0  0.1226876655337392  0.9286395862867564  0.8226483926248559  1.0000
  C   C124      1.0  0.1226851256488004  0.5713645555812975  0.6773582247939414  1.0000
  C   C125      1.0  0.6226841913601645  0.8226408489524956  0.9286368016875597  1.0000
  C   C126      1.0  0.6226864410913464  0.6773534709511966  0.5713622484785004  1.0000
  C   C127      1.0  0.8773165816706481  0.07135914026975601  0.17735148427996708  1.0000
  C   C128      1.0  0.8773033682741626  0.4286306716251147  0.3226393023946058  1.0000
  C   C129      1.0  0.4315787893684657  0.22233753060462655  0.05026648785395339  1.0000
  C   C130      1.0  0.4315904251432626  0.2776648841648565  0.4497315408200959  1.0000
  C   C131      1.0  0.06840625314214319  0.9497375631499948  0.7776669314347228  1.0000
  C   C132      1.0  0.06840484579203829  0.5502702072126765  0.72233526554524  1.0000
  C   C133      1.0  0.5684027030816666  0.7776636622582844  0.9497316778004286  1.0000
  C   C134      1.0  0.5684079875003222  0.7223313178790747  0.5502641155995744  1.0000
  C   C135      1.0  0.9315968271490149  0.05026165569085351  0.22233250436998725  1.0000
  C   C136      1.0  0.9315836481189379  0.4497279931063146  0.277661592279827  1.0000
  C   C137      1.0  0.4154466753196928  0.2900261838158045  0.05664537793668959  1.0000
  C   C138      1.0  0.4154522352986376  0.209977292077582  0.4433536434579393  1.0000
  C   C139      1.0  0.08454431424413401  0.9433607063859881  0.7099809391760769  1.0000
  C   C140      1.0  0.08454000585356881  0.5566504916448878  0.7900222268698155  1.0000
  C   C141      1.0  0.5845377343732138  0.709976442196151  0.9433470157039775  1.0000
  C   C142      1.0  0.5845426766156122  0.7900209082300478  0.5566432143874706  1.0000
  C   C143      1.0  0.9154587660573696  0.05663903386554379  0.290021021354704  1.0000
  C   C144      1.0  0.9154525722388557  0.443348702940888  0.20997473738286482  1.0000
  C   C145      1.0  0.344016110114744  0.312863297726416  0.08396766453473956  1.0000
  C   C146      1.0  0.34402154844664073  0.18714492963547974  0.41603385435355716  1.0000
  C   C147      1.0  0.15597608083434983  0.9160355684702568  0.6871467667412785  1.0000
  C   C148      1.0  0.15597299208079113  0.5839694449317036  0.8128596738449968  1.0000
  C   C149      1.0  0.655971216870874  0.6871393671182491  0.916028683545157  1.0000
  C   C150      1.0  0.6559727800044615  0.8128547523747399  0.5839621745045134  1.0000
  C   C151      1.0  0.8440281663757503  0.0839636697874724  0.312854646282119  1.0000
  C   C152      1.0  0.8440213363764429  0.4160277513934718  0.18713608897639486  1.0000
  C   C153      1.0  0.2894393941294737  0.26891744640007437  0.10580743355221497  1.0000
  C   C154      1.0  0.2894443655616428  0.2310900042382472  0.3941961044062977  1.0000
  C   C155      1.0  0.21054863451202982  0.894195392956412  0.731090851972773  1.0000
  C   C156      1.0  0.21054908617082188  0.6058083795019727  0.7689103908748148  1.0000
  C   C157      1.0  0.7105473493864523  0.7310921832184788  0.8941901537322675  1.0000
  C   C158      1.0  0.7105534636359322  0.7689092146119023  0.6058033313817643  1.0000
  C   C159      1.0  0.7894521119469644  0.10580429875190595  0.2689061655131367  1.0000
  C   C160      1.0  0.7894452422771537  0.39418879740426854  0.23108339473159828  1.0000
  C   C161      1.0  0.30645019117254446  0.2013197414777963  0.09948617745354225  1.0000
  C   C162      1.0  0.3064629887430145  0.2986871032209137  0.4005124721384162  1.0000
  C   C163      1.0  0.19353305707855384  0.9005172623091369  0.7986894817317487  1.0000
  C   C164      1.0  0.19353407645846937  0.5994880909460037  0.7013147786783873  1.0000
  C   C165      1.0  0.6935330516329756  0.7986889278560766  0.9005147635314042  1.0000
  C   C166      1.0  0.6935348404394543  0.7013125836378437  0.5994840510345012  1.0000
  C   C167      1.0  0.8064711901212007  0.09948145453790858  0.20130940656557772  1.0000
  C   C168      1.0  0.8064538339979493  0.40050811111651546  0.2986808777079942  1.0000
  C   C169      1.0  0.3900460418462117  0.5030346271441815  0.9498245381168142  1.0000
  C   C170      1.0  0.39003744061680123  0.9969614623614691  0.5501682003980547  1.0000
  C   C171      1.0  0.1099600912467835  0.050170432037894785  0.49696618506398227  1.0000
  C   C172      1.0  0.10995949450319388  0.449832229397117  0.003040078378582201  1.0000
  C   C173      1.0  0.6099611225960331  0.49696752110941844  0.050169779603642384  1.0000
  C   C174      1.0  0.6099568878487389  0.003034252262146698  0.44982839140882885  1.0000
  C   C175      1.0  0.89004415597271  0.949827826510017  0.5030366044559853  1.0000
  C   C176      1.0  0.8900447527225452  0.5501710393587514  0.9969671976447213  1.0000
  C   C177      1.0  0.4021727890912389  0.5214391017180515  0.017508323366285976  1.0000
  C   C178      1.0  0.40216195159960927  0.9785581117711145  0.48248331185014576  1.0000
  C   C179      1.0  0.0978318755183665  0.9824861379517246  0.47856480244237065  1.0000
  C   C180      1.0  0.0978334380300794  0.5175172605997036  0.021439275781133908  1.0000
  C   C181      1.0  0.597836709175148  0.4785620571121286  0.9824863822506412  1.0000
  C   C182      1.0  0.5978312099491631  0.0214385874191194  0.5175123977602138  1.0000
  C   C183      1.0  0.9021688709708472  0.0175126177393921  0.5214380402738356  1.0000
  C   C184      1.0  0.9021719760718623  0.48248543819607903  0.978560532482319  1.0000
  C   C185      1.0  0.382478036043473  0.4804762490776611  0.06568199701423788  1.0000
  C   C186      1.0  0.38246830604667537  0.019521309986330896  0.4343092565606097  1.0000
  C   C187      1.0  0.11752731326586743  0.934312546783623  0.5195254467220207  1.0000
  C   C188      1.0  0.1175288293623851  0.5656915599498548  0.9804757006502737  1.0000
  C   C189      1.0  0.6175314622252301  0.5195249146072527  0.9343132029064375  1.0000
  C   C190      1.0  0.6175248554961003  0.9804768757601962  0.5656861183680133  1.0000
  C   C191      1.0  0.8824740166711109  0.0656871934710068  0.4804765138032108  1.0000
  C   C192      1.0  0.8824725005453189  0.4343106174424776  0.0195215828741695  1.0000
  C   C193      1.0  0.3496453657738599  0.4186206385066172  0.04450981571676489  1.0000
  C   C194      1.0  0.3496395517868436  0.08138056532924048  0.45548654519056686  1.0000
  C   C195      1.0  0.15035854567824464  0.9554907817162999  0.5813835641496607  1.0000
  C   C196      1.0  0.15035727113777855  0.5445117270532549  0.9186186203588986  1.0000
  C   C197      1.0  0.6503600483231794  0.5813840488371937  0.955490205376037  1.0000
  C   C198      1.0  0.6503541932003002  0.9186180981343242  0.5445069057322554  1.0000
  C   C199      1.0  0.8496433677135683  0.0445089585372997  0.41861839637741816  1.0000
  C   C200      1.0  0.8496434753246191  0.45548847150154625  0.0813794389418447  1.0000
  C   C201      1.0  0.3366370267227267  0.39805767800358893  0.9772606311777632  1.0000
  C   C202      1.0  0.33663459898571085  0.1019384084537407  0.5227344245684262  1.0000
  C   C203      1.0  0.16336487241147776  0.022737400895174197  0.6019433465112413  1.0000
  C   C204      1.0  0.16336316606364681  0.4772624033708368  0.8980632874787272  1.0000
  C   C205      1.0  0.6633666370123805  0.6019450159405578  0.0227386827763993  1.0000
  C   C206      1.0  0.6633649805558477  0.8980587684431997  0.47725936105462796  1.0000
  C   C207      1.0  0.8366370409943615  0.9772613693580826  0.3980609791199042  1.0000
  C   C208      1.0  0.8366369969762956  0.5227378631512709  0.10194169207262148  1.0000
  C   C209      1.0  0.3562926904608048  0.4408435211009092  0.9306967591346476  1.0000
  C   C210      1.0  0.35629153910890204  0.059150526617223406  0.5693001856239019  1.0000
  C   C211      1.0  0.14370618849049072  0.0693013851070887  0.559154278070636  1.0000
  C   C212      1.0  0.14371041304952573  0.4306984936216906  0.9408527256000734  1.0000
  C   C213      1.0  0.6437092229214728  0.559158197991252  0.06930442561428407  1.0000
  C   C214      1.0  0.6437097908086145  0.9408476736790378  0.43069667224185776  1.0000
  C   C215      1.0  0.8562928076365067  0.9306973754418666  0.44084905894376886  1.0000
  C   C216      1.0  0.8562909169104529  0.5693022943090396  0.059154778681047966  1.0000
  O   O1        1.0  0.22928775645704746  0.8388963519653388  0.0172182495191961  1.0000
  O   O2        1.0  0.2292834761570575  0.6611001474107782  0.482788936281686  1.0000
  O   O3        1.0  0.27071680114569563  0.9827856802036122  0.16110904318029634  1.0000
  O   O4        1.0  0.2707143543942863  0.5172146349858409  0.33889734804611027  1.0000
  O   O5        1.0  0.7707164907763299  0.16110193571098114  0.9827875058232531  1.0000
  O   O6        1.0  0.7707126026889243  0.33889759945038367  0.5172123170938148  1.0000
  O   O7        1.0  0.7292827784609272  0.017209634368384692  0.8388973815108397  1.0000
  O   O8        1.0  0.7292916431742145  0.48278708895382033  0.6611043310195085  1.0000
  O   O9        1.0  0.3305482830945721  0.8786060737304385  0.08225641472282769  1.0000
  O   O10       1.0  0.3305482937652472  0.621396505545256  0.4177496332896664  1.0000
  O   O11       1.0  0.169447133768962  0.917756028813102  0.12139949474311607  1.0000
  O   O12       1.0  0.16945050910833  0.5822505960785733  0.3786054099991885  1.0000
  O   O13       1.0  0.6694454619589719  0.12139772616417589  0.9177543746007398  1.0000
  O   O14       1.0  0.6694524527307664  0.37860326383881227  0.5822552930561924  1.0000
  O   O15       1.0  0.8305436939609405  0.0822536639097677  0.8786045185030245  1.0000
  O   O16       1.0  0.8305525711683899  0.4177525901488793  0.6213934628567086  1.0000
  O   O17       1.0  0.466712693650102  0.4844581014478352  0.5881321205775973  1.0000
  O   O18       1.0  0.4667045262598393  0.015538079768362  0.9118697447205191  1.0000
  O   O19       1.0  0.03329605482925761  0.41186643560703123  0.5155383627632231  1.0000
  O   O20       1.0  0.03329280742600821  0.08813072994690427  0.9844552640135259  1.0000
  O   O21       1.0  0.5332903866546629  0.515543144778924  0.41187148248643246  1.0000
  O   O22       1.0  0.5332927194967779  0.9844611682112331  0.08813265688817748  1.0000
  O   O23       1.0  0.9667041081792789  0.5881267690475483  0.4844554915067432  1.0000
  O   O24       1.0  0.9667126066913242  0.9118695025827751  0.015546255428240832  1.0000
  O   O25       1.0  0.5795595769738143  0.47313464276375317  0.6444158177940192  1.0000
  O   O26       1.0  0.5795461444654108  0.0268666364655132  0.8555903140728557  1.0000
  O   O27       1.0  0.9204498658972469  0.35558842395170137  0.5268582661624064  1.0000
  O   O28       1.0  0.9204485111783142  0.1444144658010984  0.9731335400036225  1.0000
  O   O29       1.0  0.4204493378438273  0.5268725254041726  0.3555839750428048  1.0000
  O   O30       1.0  0.4204487674451301  0.9731415502748888  0.14441205665298895  1.0000
  O   O31       1.0  0.07954679638440608  0.644405784692559  0.47313668311863194  1.0000
  O   O32       1.0  0.07955456913107639  0.855586790135128  0.026871051667896523  1.0000
  O   O33       1.0  0.34259555032328143  0.06721651983553302  0.08529009477066297  1.0000
  O   O34       1.0  0.3426111853591038  0.4327882519989004  0.4147130199068271  1.0000
  O   O35       1.0  0.15738920245223656  0.9147100888341199  0.9327889355040565  1.0000
  O   O36       1.0  0.15739312718745424  0.5852849428277338  0.5672129897911302  1.0000
  O   O37       1.0  0.6573929436182979  0.9327862421017485  0.9147161393878629  1.0000
  O   O38       1.0  0.6573942287595926  0.5672104842650185  0.585287845609187  1.0000
  O   O39       1.0  0.8426092102086286  0.08528664918468822  0.06721072855292928  1.0000
  O   O40       1.0  0.8425977005430312  0.414712258358378  0.43278326732291805  1.0000
  O   O41       1.0  0.4581642463115969  0.0855117172631026  0.035497030093203784  1.0000
  O   O42       1.0  0.4581792922133303  0.4144891313595026  0.4645029847442216  1.0000
  O   O43       1.0  0.0418182330622017  0.9644999153775728  0.9144893626181624  1.0000
  O   O44       1.0  0.0418232095406026  0.5354910221996575  0.5855083852380714  1.0000
  O   O45       1.0  0.5418224972726832  0.914489060983982  0.9645094855341865  1.0000
  O   O46       1.0  0.5418243715445215  0.5855081134964877  0.5354977211442388  1.0000
  O   O47       1.0  0.9581825134037345  0.035499790894952796  0.08550913777899177  1.0000
  O   O48       1.0  0.9581728693054147  0.46449822963975157  0.41448751487900626  1.0000
  O   O49       1.0  0.2500064724807558  0.9725335244343042  0.027457822914719453  1.0000
  O   O50       1.0  0.2499958884619744  0.5274567951490852  0.47253452093221415  1.0000
  O   O51       1.0  0.7499971912653862  0.0274646952767625  0.9725410121734225  1.0000
  O   O52       1.0  0.7500036911098106  0.47253944573065365  0.5274650899211294  1.0000
  O   O53       1.0  0.09515231450246381  0.9894156085842097  0.03988594106178309  1.0000
  O   O54       1.0  0.09514929863447459  0.510585211830161  0.46010747374263855  1.0000
  O   O55       1.0  0.40484951065091224  0.9601111303982252  0.010589417833450885  1.0000
  O   O56       1.0  0.40485126427558527  0.5398876718045927  0.4894132686985343  1.0000
  O   O57       1.0  0.9048507657614594  0.010588050506576999  0.9601105134827177  1.0000
  O   O58       1.0  0.9048514478310709  0.48940899680686545  0.5398874755513388  1.0000
  O   O59       1.0  0.59514423435418  0.03989156841821989  0.9894103903930113  1.0000
  O   O60       1.0  0.5951494822139054  0.46010908562902136  0.5105883725808338  1.0000
  O   O61       1.0  0.43913983025291253  0.5811601751341726  0.03943074455926168  1.0000
  O   O62       1.0  0.4391285577488446  0.9188369220062639  0.46056260794890125  1.0000
  O   O63       1.0  0.060861043249737186  0.9605685622175743  0.41884166946266527  1.0000
  O   O64       1.0  0.060863621515522895  0.5394369218240768  0.08115892706126705  1.0000
  O   O65       1.0  0.5608679176580582  0.418842002246791  0.9605665389855242  1.0000
  O   O66       1.0  0.5608646037763663  0.08116272602287472  0.5394299607792445  1.0000
  O   O67       1.0  0.9391344521453321  0.03943418999784851  0.5811635761105618  1.0000
  O   O68       1.0  0.9391429594969123  0.4605682772188829  0.9188426301538042  1.0000
  O   O69       1.0  0.3346836133071491  0.420088139335796  0.8658812348725388  1.0000
  O   O70       1.0  0.3346794484019285  0.0799074374864119  0.6341117780606067  1.0000
  O   O71       1.0  0.1653230955704714  0.13411224083615278  0.5799089509561595  1.0000
  O   O72       1.0  0.165330427093366  0.365887571043281  0.9200991783894135  1.0000
  O   O73       1.0  0.6653212173439085  0.5799110697924874  0.13411721233022425  1.0000
  O   O74       1.0  0.6653277160552875  0.9200952418873387  0.3658860529934102  1.0000
  O   O75       1.0  0.8346764840105649  0.8658840194625198  0.4200926371121766  1.0000
  O   O76       1.0  0.8346802381378211  0.6341167016847109  0.07990919267639639  1.0000
  O   O77       1.0  0.326033875009486  0.3799807013804539  0.09301159131506147  1.0000
  O   O78       1.0  0.32603262558465934  0.1200255817079281  0.4069876234950697  1.0000
  O   O79       1.0  0.17396370439414716  0.9069890203473464  0.6200283093049916  1.0000
  O   O80       1.0  0.17396586175376433  0.5930124154024271  0.8799744127671469  1.0000
  O   O81       1.0  0.6739657045320441  0.620024970538239  0.906987547566423  1.0000
  O   O82       1.0  0.6739628697751741  0.8799725991797231  0.5930072571372091  1.0000
  O   O83       1.0  0.8260376255349371  0.0930092042225894  0.3799710200795018  1.0000
  O   O84       1.0  0.8260360516036228  0.40698525377266054  0.12001893176689288  1.0000
