data_image0
_chemical_formula_structural       C42H28I8N16O2Zn4
_chemical_formula_sum              "C42 H28 I8 N16 O2 Zn4"
_cell_length_a       14.881970910848533
_cell_length_b       14.933222185694904
_cell_length_c       14.845391696048585
_cell_angle_alpha    110.56955940818749
_cell_angle_beta     116.08188778065362
_cell_angle_gamma    102.46037021290971

_space_group_name_H-M_alt    "P 1"
_space_group_IT_number       1

loop_
  _space_group_symop_operation_xyz
  'x, y, z'

loop_
  _atom_site_type_symbol
  _atom_site_label
  _atom_site_symmetry_multiplicity
  _atom_site_fract_x
  _atom_site_fract_y
  _atom_site_fract_z
  _atom_site_occupancy
  C   C1        1.0  0.5855363434566385  0.019227676834091767  0.2909066716196873  1.0000
  C   C2        1.0  0.2012298108553311  0.8847494332672525  0.4822588603542569  1.0000
  C   C3        1.0  0.40246419109359294  0.7185188468061837  0.5175452145585024  1.0000
  C   C4        1.0  0.16716667345429667  0.7552730573520704  0.027020200393366025  1.0000
  C   C5        1.0  0.7281170408981268  0.1400711065677172  0.9730277903741535  1.0000
  C   C6        1.0  0.9941829155419983  0.7836159668769084  0.3833265628785155  1.0000
  C   C7        1.0  0.40025714245523847  0.610770183208892  0.6160934669506728  1.0000
  C   C8        1.0  0.7282938218673182  0.29448107676373053  0.708998401208106  1.0000
  C   C9        1.0  0.10088333852473125  0.8448431760852344  0.47686036775856844  1.0000
  C   C10       1.0  0.36803873675617654  0.6236899261851717  0.522766378788411  1.0000
  C   C11       1.0  0.9027535896649396  0.7798555325221556  0.3971991099337868  1.0000
  C   C12       1.0  0.38261448261226894  0.5057371517714772  0.6023814573520455  1.0000
  C   C13       1.0  0.8921326235803593  0.8643287938854342  0.4569793492291011  1.0000
  C   C14       1.0  0.4076325150363402  0.43521103116348286  0.543117113941207  1.0000
  C   C15       1.0  0.9182681461980594  0.3856196593133701  0.7474626805954256  1.0000
  C   C16       1.0  0.6377684229586363  0.17020105871466024  0.2521357637766286  1.0000
  C   C17       1.0  0.9361070146428434  0.4850078623207351  0.7633859233889665  1.0000
  C   C18       1.0  0.7214797588214381  0.17235510892141545  0.23611003336932868  1.0000
  C   C19       1.0  0.06628241732721583  0.6791116032676285  0.9128646661332593  1.0000
  C   C20       1.0  0.7659910074268267  0.15314699759525738  0.08681373671890921  1.0000
  C   C21       1.0  0.3548625581364179  0.23398356196829434  0.4359457958567603  1.0000
  C   C22       1.0  0.798049576414826  0.918963731157902  0.5642125321181052  1.0000
  C   C23       1.0  0.04193120224967853  0.5744626726202924  0.8585468430962065  1.0000
  C   C24       1.0  0.48743211850926865  0.8223630547035153  0.6044871000664143  1.0000
  C   C25       1.0  0.7156852345333602  0.1831148290416635  0.14130431545438424  1.0000
  C   C26       1.0  0.44169402075324626  0.31288660384028316  0.6267711597087595  1.0000
  C   C27       1.0  0.6856528873926991  0.8149991556623418  0.37321615461640045  1.0000
  C   C28       1.0  0.7851564111369813  0.1851498377381304  0.6301591224233575  1.0000
  C   C29       1.0  0.5551704895093295  0.15494491128837498  0.36980341980246567  1.0000
  C   C30       1.0  0.21801013851638384  0.8830428602555215  0.3955870516671565  1.0000
  C   C31       1.0  0.6024214399186505  0.12253344442268604  0.30763143458285913  1.0000
  C   C32       1.0  0.8148865123390441  0.2945312104603346  0.6919610174507795  1.0000
  C   C33       1.0  0.39590266308534444  0.33277056337627897  0.5344070708340211  1.0000
  C   C34       1.0  0.7982830180534038  0.8614787976719497  0.46580556630812703  1.0000
  C   C35       1.0  0.3734302926233753  0.7196627129595041  0.413564723950145  1.0000
  C   C36       1.0  0.3067011156457367  0.9601134626391641  0.5864266384826632  1.0000
  C   C37       1.0  0.19134552894995951  0.8571547200035282  0.10778940475277912  1.0000
  C   C38       1.0  0.7494301886119887  0.08367498533962693  0.8923311429226927  1.0000
  C   C39       1.0  0.647426734270198  0.16745596512964053  0.9095204101030204  1.0000
  C   C40       1.0  0.2580254207812302  0.7381562531158322  0.09091796301468945  1.0000
  C   C41       1.0  0.21648616263239256  0.23296678889114011  0.27414270334826796  1.0000
  C   C42       1.0  0.9591005109437631  0.942441227254285  0.7259453907253429  1.0000
  H   H1        1.0  0.11349855046594808  0.8780851606891528  0.5622490328832083  1.0000
  H   H2        1.0  0.6484841923114076  0.20367970393110818  0.09933665272960474  1.0000
  H   H3        1.0  0.10477114407516575  0.5497823150685902  0.9010201621771329  1.0000
  H   H4        1.0  0.0034732596147224928  0.7055785868115264  0.8755354910319396  1.0000
  H   H5        1.0  0.8299237238443027  0.12766844831915589  0.1238261251695078  1.0000
  H   H6        1.0  0.9942805276729415  0.3780936625676217  0.7957496691314032  1.0000
  H   H7        1.0  0.5817415529737815  0.19797851181942863  0.20439331723851234  1.0000
  H   H8        1.0  0.31569201811634434  0.5507747432315354  0.4372577123252838  1.0000
  H   H9        1.0  0.4849932673090794  0.3680525343183802  0.719157531399709  1.0000
  H   H10       1.0  0.6484234206993305  0.7659835127085656  0.2808327987064344  1.0000
  H   H11       1.0  0.8287313778526412  0.1470978804933196  0.599841925831022  1.0000
  H   H12       1.0  0.5473085843322067  0.2287077760289122  0.4000690619682246  1.0000
  H   H13       1.0  0.14384567345375404  0.9030497626034232  0.09742344685994188  1.0000
  H   H14       1.0  0.8055913052123175  0.04635698511968663  0.9024962619510646  1.0000
  H   H15       1.0  0.6057755242889586  0.21126793708314998  0.9360854919739694  1.0000
  H   H16       1.0  0.27538241400068847  0.6700735631914368  0.06440136705015202  1.0000
  H   H17       1.0  0.536235818397515  0.8587520622273815  0.6986759270475175  1.0000
  H   H18       1.0  0.15983347881187637  0.8374539448922249  0.3014449700394479  1.0000
  H   H19       1.0  0.9736651041432933  0.740164241867603  0.29501278984765356  1.0000
  H   H20       1.0  0.4450361608231363  0.6786804137615403  0.7044519581796392  1.0000
  H   H21       1.0  0.25137785365953397  0.3191602870329077  0.30780787149769395  1.0000
  H   H22       1.0  0.15619422061463695  0.21036234845585258  0.2953535178515522  1.0000
  H   H23       1.0  0.1760235186907479  0.18997641473005433  0.17965685533505388  1.0000
  H   H24       1.0  0.011972785569455068  0.9435727078710485  0.6925809275788238  1.0000
  H   H25       1.0  0.9147749939288727  0.8609871239221503  0.7043026235235812  1.0000
  H   H26       1.0  0.8329620602119617  0.7022407437346557  0.35393296960496184  1.0000
  H   H27       1.0  0.010827869713168226  0.9965121978782677  0.8204855372047177  1.0000
  H   H28       1.0  0.34818046021864296  0.47975414507958897  0.6457193612688241  1.0000
  I   I1        1.0  0.5846072939851151  0.89778041723585  0.16628003025333957  1.0000
  I   I2        1.0  0.8550413914056705  0.14785620967127497  0.34042082281276  1.0000
  I   I3        1.0  0.8064030451779729  0.5131689371355747  0.6587562247039783  1.0000
  I   I4        1.0  0.25050577358169346  0.5945863873434901  0.24518199759674522  1.0000
  I   I5        1.0  0.3497616052004348  0.005390976720775588  0.7544389134967204  1.0000
  I   I6        1.0  0.7318828004188164  0.41839131675171587  0.8337849066968416  1.0000
  I   I7        1.0  0.009175766162258096  0.025628163280941894  0.5323166076104399  1.0000
  I   I8        1.0  0.49369227372709185  0.47637032941314317  0.46778216527386707  1.0000
  N   N1        1.0  0.5377423399504692  0.9958708346825417  0.34324400229230145  1.0000
  N   N2        1.0  0.624565722790777  0.8438271003478162  0.41220650557153216  1.0000
  N   N3        1.0  0.4313459660864821  0.21288587523680033  0.5877100789555384  1.0000
  N   N4        1.0  0.6883354250308074  0.12656297307049155  0.6100617928293771  1.0000
  N   N5        1.0  0.5171200045970535  0.07875478044566356  0.3903370395766642  1.0000
  N   N6        1.0  0.43684995096397505  0.8145302556502754  0.4367701689343375  1.0000
  N   N7        1.0  0.37845550276021817  0.0008491536788782285  0.5635331288106471  1.0000
  N   N8        1.0  0.6525811867093553  0.1943476927100959  0.6571330802829037  1.0000
  N   N9        1.0  0.28751469508726785  0.8959865969751489  0.21090997702763992  1.0000
  N   N10       1.0  0.6855876201411775  0.07731131880968424  0.7896680504357859  1.0000
  N   N11       1.0  0.6220555506455127  0.1293657683167168  0.801079526095165  1.0000
  N   N12       1.0  0.3281626615836047  0.8211738239049919  0.1996841508074068  1.0000
  N   N13       1.0  0.5068871765144466  0.8777727132850757  0.55528544721286  1.0000
  N   N14       1.0  0.32295045068908484  0.952286024438578  0.4450670261045032  1.0000
  N   N15       1.0  0.3755952273215615  0.16338167064056813  0.4680801772680496  1.0000
  N   N16       1.0  0.6949508732189855  0.9076692280817082  0.5318808201570915  1.0000
  O   O1        1.0  0.303451024395379  0.20128016526082598  0.3210323954182569  1.0000
  O   O2        1.0  0.8805537037825248  0.9824976936044718  0.6792363921397279  1.0000
  Zn  Zn1       1.0  0.47758999166278926  0.8563040122026776  0.3379327415975835  1.0000
  Zn  Zn2       1.0  0.5186037826036697  0.14060266497401838  0.6627860970482045  1.0000
  Zn  Zn3       1.0  0.3697381424543805  0.02589683572831796  0.37183533672961017  1.0000
  Zn  Zn4       1.0  0.6540819789770894  0.9982056581934056  0.628734228857787  1.0000
