data_image0
_chemical_formula_structural       Br4C52H40N16O4Zn4
_chemical_formula_sum              "Br4 C52 H40 N16 O4 Zn4"
_cell_length_a       14.450197085032116
_cell_length_b       14.496037867751273
_cell_length_c       15.056827494698693
_cell_angle_alpha    105.49959846009786
_cell_angle_beta     117.30553574196497
_cell_angle_gamma    104.30354957238596

_space_group_name_H-M_alt    "P 1"
_space_group_IT_number       1

loop_
  _space_group_symop_operation_xyz
  'x, y, z'

loop_
  _atom_site_type_symbol
  _atom_site_label
  _atom_site_symmetry_multiplicity
  _atom_site_fract_x
  _atom_site_fract_y
  _atom_site_fract_z
  _atom_site_occupancy
  Br  Br1       1.0  0.3784387685214484  0.15149915132965214  0.5450317164482358  1.0000
  Br  Br2       1.0  0.699043688369784  0.28611853136844445  0.686085026536297  1.0000
  Br  Br3       1.0  0.6071637056344346  0.8341621208450929  0.45558503947551543  1.0000
  Br  Br4       1.0  0.6001027872439836  0.01116491399037058  0.31280474931120494  1.0000
  C   C1        1.0  0.8601838865923881  0.2219010333487575  0.42431204090718205  1.0000
  C   C2        1.0  0.5561352132341215  0.9769085663140655  0.9713346959433197  1.0000
  C   C3        1.0  0.18217208970851603  0.9569457016022226  0.7362616290254353  1.0000
  C   C4        1.0  0.9296933004818086  0.7436546540571455  0.7796913772709788  1.0000
  C   C5        1.0  0.22096742845815964  0.4463389076505351  0.26305545842969025  1.0000
  C   C6        1.0  0.9639971566031064  0.14974334938386863  0.22113491941317426  1.0000
  C   C7        1.0  0.22556559403081183  0.6565708109883628  0.20561539123561798  1.0000
  C   C8        1.0  0.005203373050953459  0.5850580872957494  0.02854860449005515  1.0000
  C   C9        1.0  0.4509344886390424  0.019605021097191824  0.7942040071326489  1.0000
  C   C10       1.0  0.585171378525324  0.3204540095685502  0.4910597765364031  1.0000
  C   C11       1.0  0.4525899856592804  0.3720739420567511  0.5931256398324365  1.0000
  C   C12       1.0  0.8300391087107998  0.0944770020236661  0.508947028618593  1.0000
  C   C13       1.0  0.8423582037093243  0.7533466616673152  0.5159747707242844  1.0000
  C   C14       1.0  0.7798891010346196  0.8595349921664521  0.40731810441510435  1.0000
  C   C15       1.0  0.5766554089386775  0.2962173081025128  0.5685745834330974  1.0000
  C   C16       1.0  0.47632324924164504  0.2874082203586781  0.5728568357133882  1.0000
  C   C17       1.0  0.7283089082180396  0.007853930399903652  0.4313538906355276  1.0000
  C   C18       1.0  0.7155089487300118  0.9037411339353695  0.4276293798932188  1.0000
  C   C19       1.0  0.7976470087404124  0.43574928251545225  0.575580231169461  1.0000
  C   C20       1.0  0.16139242796995037  0.5785386313370179  0.8811298395707254  1.0000
  C   C21       1.0  0.017050675133361996  0.6061180577303489  0.3103336975812854  1.0000
  C   C22       1.0  0.6971883768389802  0.2800657370214735  0.11906307108934304  1.0000
  C   C23       1.0  0.29569047442132085  0.7067744275549329  0.6892156088677268  1.0000
  C   C24       1.0  0.23730692996954875  0.32666829640905337  0.4840895366185194  1.0000
  C   C25       1.0  0.05099232261073915  0.6622837554763519  0.8535478318288697  1.0000
  C   C26       1.0  0.12633246125840006  0.5205163559419858  0.3366446376771607  1.0000
  C   C27       1.0  0.8087868413056827  0.19747949029947884  0.14707826672406563  1.0000
  C   C28       1.0  0.18319120447834816  0.7891548601263237  0.6625741708293236  1.0000
  C   C29       1.0  0.6808729290316293  0.36122040568320546  0.3911087560728603  1.0000
  C   C30       1.0  0.33907477310214085  0.44688003669715193  0.6590321197422854  1.0000
  C   C31       1.0  0.9703292658426296  0.29025481360120864  0.6087889405392987  1.0000
  C   C32       1.0  0.7880260490063409  0.6799894719586134  0.3412572690769053  1.0000
  C   C33       1.0  0.8769087674395027  0.19697264206685364  0.5131721277139009  1.0000
  C   C34       1.0  0.7963896651800085  0.7672709484633625  0.41845470489086983  1.0000
  C   C35       1.0  0.6835002154468982  0.36323420189432193  0.4866227271497295  1.0000
  C   C36       1.0  0.3489868119118996  0.37778966124542257  0.5818630745874813  1.0000
  C   C37       1.0  0.11407229336951764  0.6279996740531215  0.9305817526246117  1.0000
  C   C38       1.0  0.09555674250498938  0.5871247752259163  0.2859796205033121  1.0000
  C   C39       1.0  0.6973229013509866  0.18348123800593902  0.06972914081323718  1.0000
  C   C40       1.0  0.30086278622650336  0.8093092411041451  0.713317589283527  1.0000
  C   C41       1.0  0.4739430771183779  0.07803488668855602  0.9113148543113854  1.0000
  C   C42       1.0  0.5327508718962553  0.9187583720741297  0.8542683402408997  1.0000
  C   C43       1.0  0.1666003821746429  0.5627469844018337  0.08819290361220317  1.0000
  C   C44       1.0  0.06442021363071869  0.6784425945618152  0.14593655006427048  1.0000
  C   C45       1.0  0.4314818584546178  0.9697441600802885  0.9148235308282722  1.0000
  C   C46       1.0  0.5766004972703415  0.02788919120915521  0.852218038271147  1.0000
  C   C47       1.0  0.05424892648249382  0.5167687639524983  0.0843425380185394  1.0000
  C   C48       1.0  0.17614120161308486  0.7243547361323975  0.14831897150023823  1.0000
  C   C49       1.0  0.40582738943023616  0.9090118296971776  0.7957704133434405  1.0000
  C   C50       1.0  0.6001564862965199  0.08764869599556845  0.9705957485107606  1.0000
  C   C51       1.0  0.11287423985407229  0.6097988281245391  0.20375847918306536  1.0000
  C   C52       1.0  0.11718229465969912  0.6298275877070691  0.0295173839868355  1.0000
  H   H1        1.0  0.7986794042684765  0.17323011058601875  0.3352430503803064  1.0000
  H   H2        1.0  0.971292534429594  0.6540174983513081  0.2878637452243141  1.0000
  H   H3        1.0  0.6280390076248352  0.3047088700181463  0.0884348880655993  1.0000
  H   H4        1.0  0.36641043612941376  0.6838187239806001  0.7118518237632686  1.0000
  H   H5        1.0  0.21659438205922066  0.5399496620621631  0.911523990050462  1.0000
  H   H6        1.0  0.6103637907103521  0.3143122026131592  0.3037823263633968  1.0000
  H   H7        1.0  0.4041882042835784  0.501273411188407  0.7463462667919317  1.0000
  H   H8        1.0  0.010964389312640556  0.3073689084139488  0.6961277370769212  1.0000
  H   H9        1.0  0.866828819856295  0.8049392660132992  0.5977267397713677  1.0000
  H   H10       1.0  0.7554561714816261  0.6577645711842379  0.25407544644015456  1.0000
  H   H11       1.0  0.37138321619865916  0.9436876674919007  0.9377795667925002  1.0000
  H   H12       1.0  0.6358161725838517  0.052251172780785275  0.8279016241858204  1.0000
  H   H13       1.0  0.00469301908671583  0.4337264859166367  0.0606820399166637  1.0000
  H   H14       1.0  0.2253705529016728  0.8078732917794296  0.1733556382833541  1.0000
  H   H15       1.0  0.8384163262277016  0.4633808318206647  0.6646543691815553  1.0000
  H   H16       1.0  0.451400875876118  0.14304411384043889  0.9350576609845903  1.0000
  H   H17       1.0  0.5563370126972489  0.8546570555203699  0.8303643572638677  1.0000
  H   H18       1.0  0.2079372989711033  0.51654026341172  0.06433821905606153  1.0000
  H   H19       1.0  0.024202793237648564  0.7258748889281036  0.17000040238721678  1.0000
  H   H20       1.0  0.2069994513523243  0.26932283792388023  0.40230645640768614  1.0000
  H   H21       1.0  0.4100786815211067  0.03702027645580588  0.7229234335797586  1.0000
  H   H22       1.0  0.6000178588805127  0.9615072040965696  0.04346251731929833  1.0000
  H   H23       1.0  0.31458514443887264  0.6869615876908666  0.276863987373126  1.0000
  H   H24       1.0  0.9173786118991887  0.5569237515980275  0.9564758743819227  1.0000
  H   H25       1.0  0.5210544873017185  0.4466243022700452  0.6182269935631268  1.0000
  H   H26       1.0  0.5038530421498495  0.3127580801156426  0.4240128505391994  1.0000
  H   H27       1.0  0.8294774339879468  0.9024172529944248  0.3820802851459604  1.0000
  H   H28       1.0  0.8897171819255904  0.0811789143486337  0.5765971521993054  1.0000
  H   H29       1.0  0.8617124953858382  0.6728292735654617  0.7001776626334008  1.0000
  H   H30       1.0  0.9904819074364468  0.79377413149313  0.7683207804164313  1.0000
  H   H31       1.0  0.8892562895142934  0.7888936117875927  0.806552120946428  1.0000
  H   H32       1.0  0.26297971254654595  0.5156995688642282  0.25593971408700605  1.0000
  H   H33       1.0  0.13946947655782793  0.3900422025614105  0.18231846317488737  1.0000
  H   H34       1.0  0.2787913522996845  0.4079164644705386  0.2876608333788725  1.0000
  H   H35       1.0  0.9723353260879577  0.16149813102460092  0.3004140834268797  1.0000
  H   H36       1.0  0.02616519084364914  0.221610456308376  0.23284264313279832  1.0000
  H   H37       1.0  0.981979964220301  0.08225354284797952  0.19417453929123948  1.0000
  H   H38       1.0  0.25921321935166486  0.006311830086225716  0.7440835857546306  1.0000
  H   H39       1.0  0.20616808772781817  0.9561808542026922  0.8167365266456345  1.0000
  H   H40       1.0  0.1188219135722339  0.9898199297983008  0.7113406730918259  1.0000
  N   N1        1.0  0.9389178983227496  0.3206580715768866  0.46480750096196755  1.0000
  N   N2        1.0  0.0015297784340547681  0.5547830004580873  0.36863247071202937  1.0000
  N   N3        1.0  0.7990877608218413  0.346055214014349  0.21668612544145557  1.0000
  N   N4        1.0  0.18569272195986744  0.6327997652758269  0.6310186691728178  1.0000
  N   N5        1.0  0.13002607312952819  0.5829904982530749  0.7838264740622236  1.0000
  N   N6        1.0  0.059999322578385035  0.6358366141624926  0.766022873353947  1.0000
  N   N7        1.0  0.0691623950079221  0.5016866465662984  0.38442845877216314  1.0000
  N   N8        1.0  0.8698975857126855  0.29399691935889644  0.2347248364840839  1.0000
  N   N9        1.0  0.8600790636764514  0.6653814102653186  0.4984264294679833  1.0000
  N   N10       1.0  0.11646771042601536  0.6843136562000893  0.6150322207722855  1.0000
  N   N11       1.0  0.784561635064904  0.42752461181797935  0.4218908130054687  1.0000
  N   N12       1.0  0.22989793724775626  0.4360835476194536  0.6109718875123137  1.0000
  N   N13       1.0  0.0054593378489970635  0.3631022099015622  0.57812676912922  1.0000
  N   N14       1.0  0.8244503987291766  0.6187514064795108  0.38907990352906563  1.0000
  N   N15       1.0  0.8557815800566007  0.4744087665567136  0.5352074859944411  1.0000
  N   N16       1.0  0.16696961338994504  0.3624850269325818  0.5015225873652085  1.0000
  O   O1        1.0  0.9888844599892509  0.7151092925652873  0.8662310126604638  1.0000
  O   O2        1.0  0.20163100087532385  0.4761076939335566  0.3494115571773407  1.0000
  O   O3        1.0  0.8487491148406292  0.12265732088535944  0.13437056529819816  1.0000
  O   O4        1.0  0.12579921735647306  0.8513905354062812  0.6496690893214493  1.0000
  Zn  Zn1       1.0  0.017709249585379953  0.3667497105800449  0.3935653648195085  1.0000
  Zn  Zn2       1.0  0.9726702534934122  0.6244287050731288  0.6068329505209605  1.0000
  Zn  Zn3       1.0  0.14293115385334695  0.5055885202530774  0.6591441530871763  1.0000
  Zn  Zn4       1.0  0.8460171675282383  0.4839063757854943  0.34100326562126787  1.0000
