data_image0
_chemical_formula_structural       Zn16H192C216O52
_chemical_formula_sum              "Zn16 H192 C216 O52"
_cell_length_a       22.835468927552785
_cell_length_b       22.835453437199217
_cell_length_c       25.314292695499635
_cell_angle_alpha    63.190351875116406
_cell_angle_beta     63.19036897572874
_cell_angle_gamma    60.00219420495036

_space_group_name_H-M_alt    "P 1"
_space_group_IT_number       1

loop_
  _space_group_symop_operation_xyz
  'x, y, z'

loop_
  _atom_site_type_symbol
  _atom_site_label
  _atom_site_symmetry_multiplicity
  _atom_site_fract_x
  _atom_site_fract_y
  _atom_site_fract_z
  _atom_site_occupancy
  Zn  Zn1       1.0  0.9754845071988711  0.8214946673947457  0.2556694028120178  1.0000
  Zn  Zn2       1.0  0.9473295118782444  0.975528703959782  0.2556277726089392  1.0000
  Zn  Zn3       1.0  0.8214557671775182  0.9473818348980957  0.25563773342451424  1.0000
  Zn  Zn4       1.0  0.44738124817568087  0.32145650030103207  0.7556368289909017  1.0000
  Zn  Zn5       1.0  0.321494518601149  0.4754845302864367  0.7556682195036829  1.0000
  Zn  Zn6       1.0  0.47552738392881366  0.44732926039988297  0.7556279658339946  1.0000
  Zn  Zn7       1.0  0.9536481218815709  0.9536860306660916  0.13894203854890466  1.0000
  Zn  Zn8       1.0  0.4536862306076798  0.4536491437461691  0.6389410927530933  1.0000
  Zn  Zn9       1.0  0.5526194424714888  0.678544628364151  0.24436104220676197  1.0000
  Zn  Zn10      1.0  0.6785061737190788  0.5245151271174181  0.24433104128432592  1.0000
  Zn  Zn11      1.0  0.524472251334913  0.5526712814002579  0.24437176042543038  1.0000
  Zn  Zn12      1.0  0.024515656731949796  0.1785066597914735  0.7443301824107778  1.0000
  Zn  Zn13      1.0  0.052670123136294905  0.0244713466130193  0.74437175911514  1.0000
  Zn  Zn14      1.0  0.1785449249077686  0.05261831324896349  0.7443613272595614  1.0000
  Zn  Zn15      1.0  0.5463139337930158  0.5463512019536411  0.3610588926775621  1.0000
  Zn  Zn16      1.0  0.04634939901998081  0.046315788699288915  0.8610584241179994  1.0000
  H   H1        1.0  0.1230572046152218  0.6759659801190735  0.15244259121536907  1.0000
  H   H2        1.0  0.1182189656037025  0.869713092824085  0.005902514995973962  1.0000
  H   H3        1.0  0.2578932909197603  0.5585971893995207  0.05656560054514168  1.0000
  H   H4        1.0  0.16935264659263538  0.5698944817701276  0.07509321171908573  1.0000
  H   H5        1.0  0.1989610160247182  0.5642823468330321  0.13173285859013362  1.0000
  H   H6        1.0  0.1627005180823318  0.8694005220679557  0.900073530183228  1.0000
  H   H7        1.0  0.20284582355778719  0.7896592793459976  0.8796612216381238  1.0000
  H   H8        1.0  0.25318099220229573  0.8158966289190984  0.8948726082096387  1.0000
  H   H9        1.0  0.2021866426539205  0.6029697858189209  0.8702092853314625  1.0000
  H   H10       1.0  0.40393720859966453  0.57007750292739  0.8710032681369383  1.0000
  H   H11       1.0  0.09929604933940789  0.6606843905152004  0.002204526823369752  1.0000
  H   H12       1.0  0.09803188601762258  0.739205410694808  0.9412352900154985  1.0000
  H   H13       1.0  0.0952688428447459  0.6689376005271511  0.9304421713178217  1.0000
  H   H14       1.0  0.3621222206915887  0.6028986277707987  0.9985621957030588  1.0000
  H   H15       1.0  0.4103545432205705  0.6348686244369335  0.9212211992920629  1.0000
  H   H16       1.0  0.3321601851657618  0.6941561763278797  0.9599176026714958  1.0000
  H   H17       1.0  0.0485727000856855  0.1230563770263871  0.15240758833361673  1.0000
  H   H18       1.0  0.006106082539247398  0.1182109635277513  0.005926576146002605  1.0000
  H   H19       1.0  0.1270093156586256  0.25787912130488894  0.05647425928722067  1.0000
  H   H20       1.0  0.1857448359980083  0.16935753765708486  0.07498283524210342  1.0000
  H   H21       1.0  0.10513506588188189  0.19894631887254383  0.1316482979392291  1.0000
  H   H22       1.0  0.06772666332067699  0.16270072710860012  0.9000672152487965  1.0000
  H   H23       1.0  0.12776250309713788  0.20281964570968822  0.879635686539423  1.0000
  H   H24       1.0  0.03598917258043599  0.2531657272650635  0.8949017692300104  1.0000
  H   H25       1.0  0.3247455292963578  0.20191877094658392  0.8702243102878529  1.0000
  H   H26       1.0  0.15522104188021052  0.4037554478539107  0.8708813251183116  1.0000
  H   H27       1.0  0.2377759469408716  0.09920498341013942  0.0022202967240474132  1.0000
  H   H28       1.0  0.22149150542401938  0.09789730709096743  0.9412639426189388  1.0000
  H   H29       1.0  0.305332121414537  0.0950986072345685  0.9304715845670515  1.0000
  H   H30       1.0  0.0366225227723405  0.3620604008534372  0.9984652686787002  1.0000
  H   H31       1.0  0.0336931623642656  0.4103029188996459  0.9211487908668802  1.0000
  H   H32       1.0  0.013830402136598295  0.33214603906839096  0.9598913671114461  1.0000
  H   H33       1.0  0.6759564271246034  0.04854143430875982  0.15241309571773354  1.0000
  H   H34       1.0  0.869757165443801  0.006189303743418843  0.005918542023231041  1.0000
  H   H35       1.0  0.5586336325625396  0.12697903680272302  0.056481697037789075  1.0000
  H   H36       1.0  0.5698808497000414  0.18572000654233278  0.07501913238950662  1.0000
  H   H37       1.0  0.5642759115243337  0.10507944344792017  0.13165788215195565  1.0000
  H   H38       1.0  0.8694856732474745  0.06782762425928018  0.9000377177915198  1.0000
  H   H39       1.0  0.7897428588884237  0.12782406908547014  0.8796125079670534  1.0000
  H   H40       1.0  0.8159227015394278  0.03602952067290505  0.8949478797494451  1.0000
  H   H41       1.0  0.603074141845603  0.32470554991056844  0.8701894706880895  1.0000
  H   H42       1.0  0.570107279551621  0.15510179664713777  0.8709850048800973  1.0000
  H   H43       1.0  0.6607343779019742  0.23782916411825292  0.0022041693280315153  1.0000
  H   H44       1.0  0.7392845549757254  0.22155560792771217  0.9412559079618319  1.0000
  H   H45       1.0  0.6690178772227781  0.3053860242597752  0.9304531898654961  1.0000
  H   H46       1.0  0.602910788365314  0.03653142131774699  0.9985666618036434  1.0000
  H   H47       1.0  0.6348784351158301  0.03361053132789488  0.9212518918742846  1.0000
  H   H48       1.0  0.694177473919616  0.013811643582037974  0.9599431925347874  1.0000
  H   H49       1.0  0.5485401860030875  0.1759553341770684  0.6524128903005463  1.0000
  H   H50       1.0  0.5061888703537747  0.36975655885071035  0.5059189951999414  1.0000
  H   H51       1.0  0.6269782656355928  0.05863221442957927  0.5564818210615884  1.0000
  H   H52       1.0  0.6857186084487734  0.0698800596469555  0.5750200451370304  1.0000
  H   H53       1.0  0.6050779059132836  0.06427562278967269  0.6316578585835657  1.0000
  H   H54       1.0  0.5678255332649511  0.36948603359815735  0.4000384071438816  1.0000
  H   H55       1.0  0.6278228466686998  0.28974293618917824  0.37961256084543027  1.0000
  H   H56       1.0  0.536028457338844  0.3159234250585214  0.3949472112409327  1.0000
  H   H57       1.0  0.8247066812008511  0.10307353394108543  0.3701888358368068  1.0000
  H   H58       1.0  0.6551027589356337  0.07010604200211651  0.37098469835383  1.0000
  H   H59       1.0  0.737830317181121  0.16073372244846246  0.5022028020258135  1.0000
  H   H60       1.0  0.7215567369883187  0.2392846148431221  0.44125461097313945  1.0000
  H   H61       1.0  0.805386901355419  0.16901806629832808  0.43045154508472194  1.0000
  H   H62       1.0  0.5365312195890866  0.10291057024201684  0.4985660220158934  1.0000
  H   H63       1.0  0.5336094446371433  0.1348792703433973  0.42125157906851024  1.0000
  H   H64       1.0  0.5138119743998998  0.1941764748727267  0.4599434462398904  1.0000
  H   H65       1.0  0.17596634713014225  0.6230582749852546  0.6524424211135413  1.0000
  H   H66       1.0  0.36971389479512595  0.618217037382145  0.505902201974813  1.0000
  H   H67       1.0  0.05859723575001399  0.7578943437165293  0.5565651780350223  1.0000
  H   H68       1.0  0.0698936332752425  0.6693546014231091  0.5750935745071716  1.0000
  H   H69       1.0  0.064282600566429  0.6989627989533388  0.6317320524292783  1.0000
  H   H70       1.0  0.3694025823040832  0.6626994284031584  0.40007271318231824  1.0000
  H   H71       1.0  0.28966147246972435  0.7028444302880031  0.37966008144854885  1.0000
  H   H72       1.0  0.31589762700605917  0.7531799561949056  0.39487260030416144  1.0000
  H   H73       1.0  0.1029689142233323  0.7021877737283688  0.37020955411654205  1.0000
  H   H74       1.0  0.07007665455950729  0.9039382044428166  0.37100358693358265  1.0000
  H   H75       1.0  0.16068416173378347  0.5992966505199817  0.5022043959929192  1.0000
  H   H76       1.0  0.2392046390934937  0.5980321374309411  0.441235082373588  1.0000
  H   H77       1.0  0.16893717203726058  0.5952689529408559  0.4304422776304621  1.0000
  H   H78       1.0  0.10289817564283507  0.862122391681389  0.4985615028767116  1.0000
  H   H79       1.0  0.1348679464483808  0.9103552245821622  0.42122078573238747  1.0000
  H   H80       1.0  0.1941567473471864  0.8321605051047813  0.4599168244885661  1.0000
  H   H81       1.0  0.6230562013322896  0.5485734467110889  0.652407450813442  1.0000
  H   H82       1.0  0.6182124335981172  0.5061061690051433  0.5059256408192427  1.0000
  H   H83       1.0  0.7578784432779314  0.6270106813651137  0.5564748631699247  1.0000
  H   H84       1.0  0.6693573016373263  0.6857453115418224  0.5749824395587738  1.0000
  H   H85       1.0  0.6989455846916001  0.6051361606909254  0.6316486408912073  1.0000
  H   H86       1.0  0.6627012436995869  0.5677268115277982  0.4000673896511559  1.0000
  H   H87       1.0  0.7028204411019132  0.6277626612837752  0.3796357434996765  1.0000
  H   H88       1.0  0.7531674206383768  0.5359890793564617  0.39490116476989107  1.0000
  H   H89       1.0  0.7019199427630838  0.8247449485989834  0.3702245187571125  1.0000
  H   H90       1.0  0.9037557203438453  0.6552212412156918  0.3708811803832078  1.0000
  H   H91       1.0  0.5992053687195096  0.7377755547323375  0.5022207938873889  1.0000
  H   H92       1.0  0.5978986131595078  0.7214911298647665  0.44126440768162933  1.0000
  H   H93       1.0  0.5950992182963615  0.8053314156591043  0.43047246945847234  1.0000
  H   H94       1.0  0.862060727947096  0.5366218724293648  0.498465051846125  1.0000
  H   H95       1.0  0.9103034368494815  0.5336917355847889  0.42114881198108395  1.0000
  H   H96       1.0  0.8321455123557867  0.5138301009739126  0.4598921463418293  1.0000
  H   H97       1.0  0.45145839145658323  0.824044618337332  0.347586717824264  1.0000
  H   H98       1.0  0.4938102364920453  0.6302436887907064  0.49408106663144497  1.0000
  H   H99       1.0  0.3730213705821299  0.9413673463682953  0.4435187000449687  1.0000
  H   H100      1.0  0.3142799704775214  0.9301208762904171  0.4249807413370093  1.0000
  H   H101      1.0  0.3949206722939492  0.9357258034067542  0.3683423331472685  1.0000
  H   H102      1.0  0.4321735735951222  0.6305151960138035  0.5999616491189173  1.0000
  H   H103      1.0  0.3721767893140893  0.7102571153519082  0.6203877601572004  1.0000
  H   H104      1.0  0.46397170632854307  0.6840764289297994  0.6050521850151114  1.0000
  H   H105      1.0  0.1752934831998445  0.8969268117587321  0.6298111495938556  1.0000
  H   H106      1.0  0.3448974057000028  0.9298938129544968  0.6290154871807587  1.0000
  H   H107      1.0  0.26216931687942946  0.8392673091265976  0.49779593485113355  1.0000
  H   H108      1.0  0.2784434264583808  0.7607167118589543  0.5587445796103837  1.0000
  H   H109      1.0  0.19461326137222557  0.83098375066281  0.5695470507555953  1.0000
  H   H110      1.0  0.46346894504654296  0.8970892847145888  0.5014341635186952  1.0000
  H   H111      1.0  0.4663901913456456  0.8651207811976819  0.5787487419341134  1.0000
  H   H112      1.0  0.48618818975160843  0.8058233795997438  0.5400563446554261  1.0000
  H   H113      1.0  0.8240317038766206  0.3769433492480729  0.34755909000314505  1.0000
  H   H114      1.0  0.6302857428607211  0.38178154289761324  0.4940995086181559  1.0000
  H   H115      1.0  0.9414023997629002  0.24210668931095825  0.44343474275974154  1.0000
  H   H116      1.0  0.9301038878754965  0.3306477091696111  0.42490708269507854  1.0000
  H   H117      1.0  0.9357159776408039  0.3010386272430879  0.3682681393015558  1.0000
  H   H118      1.0  0.6305981114542618  0.33729924848257303  0.5999277370921022  1.0000
  H   H119      1.0  0.7103386928849673  0.29715493440954094  0.6203406988292457  1.0000
  H   H120      1.0  0.6841020104148469  0.24681911482804983  0.6051289101848738  1.0000
  H   H121      1.0  0.897031250412297  0.2978120812282443  0.6297906314180468  1.0000
  H   H122      1.0  0.9299240380099077  0.09606194418837803  0.6289958683897724  1.0000
  H   H123      1.0  0.8393165313197527  0.40070349859536264  0.497795453969708  1.0000
  H   H124      1.0  0.7607960541949765  0.4019675209411914  0.5587649676929659  1.0000
  H   H125      1.0  0.8310635212512166  0.404730705431284  0.569557772436099  1.0000
  H   H126      1.0  0.8971014593717114  0.13787765889140496  0.5014380288473675  1.0000
  H   H127      1.0  0.8651322174681937  0.08964512063350584  0.5787788050590025  1.0000
  H   H128      1.0  0.805843416804322  0.16783934936768935  0.5400829664067502  1.0000
  H   H129      1.0  0.37694396281921877  0.4514264077613818  0.3475923400818814  1.0000
  H   H130      1.0  0.3817882589712979  0.49389397962605835  0.49407381450410537  1.0000
  H   H131      1.0  0.24212119175086136  0.3729903511782312  0.443524662985567  1.0000
  H   H132      1.0  0.3306423345804035  0.3142542492560595  0.4250180815477833  1.0000
  H   H133      1.0  0.3010556374846516  0.394862810353537  0.3683514738112451  1.0000
  H   H134      1.0  0.3372994488698282  0.43227333710339605  0.5999320656721921  1.0000
  H   H135      1.0  0.29717972208135274  0.37223719222041046  0.6203632581171022  1.0000
  H   H136      1.0  0.24683221439041594  0.4640119531868835  0.6050983613856005  1.0000
  H   H137      1.0  0.2980812806448511  0.17525549661165488  0.629776574190636  1.0000
  H   H138      1.0  0.09624497342875318  0.3447784176405903  0.6291192643226257  1.0000
  H   H139      1.0  0.40079479714781024  0.2622257743904442  0.497780369892503  1.0000
  H   H140      1.0  0.4021020806415905  0.27851049293260394  0.5587360258870149  1.0000
  H   H141      1.0  0.404900947805892  0.19466942272048027  0.5695288944253465  1.0000
  H   H142      1.0  0.13793890829913377  0.4633796523096052  0.5015354581232574  1.0000
  H   H143      1.0  0.0896961998523693  0.4663078256972355  0.5788521037647456  1.0000
  H   H144      1.0  0.1678530682578128  0.48617034567267575  0.540110024153961  1.0000
  H   H145      1.0  0.8769424320723829  0.3240325991923995  0.8475583300990549  1.0000
  H   H146      1.0  0.8817817283895764  0.1302850933184487  0.9940981353823802  1.0000
  H   H147      1.0  0.742105816146754  0.4414015855281406  0.9434346669587728  1.0000
  H   H148      1.0  0.8306448745296037  0.4301058648814974  0.9249074566203465  1.0000
  H   H149      1.0  0.8010375633571981  0.43571662564738745  0.8682683336603533  1.0000
  H   H150      1.0  0.8373001761458808  0.13059717333136694  0.0999273202990595  1.0000
  H   H151      1.0  0.797154870449752  0.21033988876707357  0.12033942317163587  1.0000
  H   H152      1.0  0.746819171934959  0.1841022435828208  0.10512718825426516  1.0000
  H   H153      1.0  0.7978135205293454  0.3970300676852645  0.12978971628530894  1.0000
  H   H154      1.0  0.5960634832506884  0.42992313596286663  0.1289955924432107  1.0000
  H   H155      1.0  0.9007041143279719  0.33931546347312774  0.9977948694326814  1.0000
  H   H156      1.0  0.9019672215472594  0.26079434668753987  0.05876536655910064  1.0000
  H   H157      1.0  0.904730264236015  0.33106215637106123  0.06955809061750527  1.0000
  H   H158      1.0  0.6378768868733005  0.39710112961155625  0.0014384608715333172  1.0000
  H   H159      1.0  0.5896456228531832  0.36513025000155613  0.07878017572893738  1.0000
  H   H160      1.0  0.6678405088417704  0.3058429917851911  0.04008304213827078  1.0000
  H   H161      1.0  0.9514269356336627  0.8769422013168086  0.8475925437022621  1.0000
  H   H162      1.0  0.9938940816122609  0.8817888909447196  0.9940732147493138  1.0000
  H   H163      1.0  0.8729903205591043  0.7421204394929859  0.9435262618193364  1.0000
  H   H164      1.0  0.814254800468909  0.830642514368137  0.9250178803998  1.0000
  H   H165      1.0  0.8948645708199691  0.8010532424094805  0.8683526178066006  1.0000
  H   H166      1.0  0.9322745581507658  0.8372997161654755  0.09993229914186216  1.0000
  H   H167      1.0  0.8722387183600516  0.7971798155938359  0.12036383341983038  1.0000
  H   H168      1.0  0.9640125780137224  0.7468335379381302  0.10509800990048053  1.0000
  H   H169      1.0  0.6752556935989559  0.7980797098388167  0.12977639915780503  1.0000
  H   H170      1.0  0.8447791227554191  0.5962444071026953  0.12911886041628412  1.0000
  H   H171      1.0  0.7622247470666607  0.9007941847029386  0.9977803480857118  1.0000
  H   H172      1.0  0.7785091883485789  0.902102351765315  0.058736502086894515  1.0000
  H   H173      1.0  0.6946685725930024  0.9049005608785095  0.06952906024270801  1.0000
  H   H174      1.0  0.9633786986991025  0.637940042420631  0.001534245711958798  1.0000
  H   H175      1.0  0.9663075299559621  0.5896967385042089  0.07885046992112893  1.0000
  H   H176      1.0  0.9861702921058748  0.6678526383014827  0.040109477802247114  1.0000
  H   H177      1.0  0.3240437384792755  0.9514584216161309  0.8475878790954071  1.0000
  H   H178      1.0  0.13024299920608226  0.993811533183738  0.9940816379427703  1.0000
  H   H179      1.0  0.4413665332762804  0.8730203283789635  0.9435194778792848  1.0000
  H   H180      1.0  0.4301193139673458  0.8142798474459951  0.9249802638665444  1.0000
  H   H181      1.0  0.4357231960548018  0.8949212959049789  0.8683427688540492  1.0000
  H   H182      1.0  0.13051396299875506  0.9321739004796968  0.0999627921778625  1.0000
  H   H183      1.0  0.21025677784192706  0.872177456137649  0.12038839664159465  1.0000
  H   H184      1.0  0.18407640556983298  0.9639722001663958  0.10505237104869984  1.0000
  H   H185      1.0  0.3969270793481456  0.6752924381950648  0.12980986030441252  1.0000
  H   H186      1.0  0.4298944710282838  0.8448964865855118  0.12901477981898088  1.0000
  H   H187      1.0  0.3392668442742774  0.7621698069262094  0.9977959453744207  1.0000
  H   H188      1.0  0.2607156096456507  0.7784432650583497  0.05874428314135123  1.0000
  H   H189      1.0  0.3309828158165118  0.6946131428850182  0.06954666566571899  1.0000
  H   H190      1.0  0.39708937795762006  0.9634679443480895  0.0014349077527028547  1.0000
  H   H191      1.0  0.36512120135108006  0.9663895206973265  0.07874882376761161  1.0000
  H   H192      1.0  0.30582321985298216  0.9861880152742443  0.040057252171045936  1.0000
  C   C1        1.0  0.06422343416518568  0.8178742621027408  0.12834822168117213  1.0000
  C   C2        1.0  0.11589761999971424  0.7766970712874441  0.0835551831032292  1.0000
  C   C3        1.0  0.13966541026989887  0.7028648004323584  0.1032451245269074  1.0000
  C   C4        1.0  0.181937600917081  0.6642489033871898  0.060524593071548304  1.0000
  C   C5        1.0  0.20087191577856342  0.7007611263181988  0.9969025164988993  1.0000
  C   C6        1.0  0.17954408087272358  0.7750738865875421  0.9767444808901473  1.0000
  C   C7        1.0  0.13696302997092144  0.8121981791050886  0.020642304925345932  1.0000
  C   C8        1.0  0.2035104369661127  0.5850973215880443  0.08218772584335463  1.0000
  C   C9        1.0  0.20043472946792917  0.8146273979467366  0.9092462643979574  1.0000
  C   C10       1.0  0.34205219634065287  0.5390781803902698  0.8228322859322149  1.0000
  C   C11       1.0  0.3065481101570242  0.5822211990611167  0.8665188384801397  1.0000
  C   C12       1.0  0.2326251197090485  0.6114689567986673  0.8872550376824011  1.0000
  C   C13       1.0  0.1981294454604736  0.6505580144610194  0.9292441835868388  1.0000
  C   C14       1.0  0.23899658437455426  0.660357983223399  0.9507960829893918  1.0000
  C   C15       1.0  0.31342588675024524  0.6317888274702385  0.9298028501692245  1.0000
  C   C16       1.0  0.3464153476415035  0.5928706685828118  0.8877090124744241  1.0000
  C   C17       1.0  0.11865744580427419  0.681414933318223  0.9516220206125753  1.0000
  C   C18       1.0  0.35688715305406754  0.6416792289024754  0.9532807994767865  1.0000
  C   C19       1.0  0.989531641511817  0.06424140254972605  0.12839036786231628  1.0000
  C   C20       1.0  0.0238486192801801  0.11590381182705298  0.08355273373939552  1.0000
  C   C21       1.0  0.05426048804599759  0.1396635666105652  0.10321276822902095  1.0000
  C   C22       1.0  0.09334611277459709  0.18190409244587616  0.0604706195735787  1.0000
  C   C23       1.0  0.1014941835506846  0.20081062628361931  0.9968589609512294  1.0000
  C   C24       1.0  0.06862223414884738  0.17950259507546204  0.9767290847221731  1.0000
  C   C25       1.0  0.030163798574314192  0.1369458583016794  0.020654258342816006  1.0000
  C   C26       1.0  0.1292881388296294  0.2034933003645207  0.08209892318548384  1.0000
  C   C27       1.0  0.0756308865288204  0.20041240578336067  0.9092424480401462  1.0000
  C   C28       1.0  0.2961888967285232  0.3418360154824002  0.8227979996881274  1.0000
  C   C29       1.0  0.2448575281589598  0.30634166190973383  0.8664603461201423  1.0000
  C   C30       1.0  0.2687635937005979  0.23241613285723164  0.8872198471304173  1.0000
  C   C31       1.0  0.22212401935976797  0.1979803432965923  0.929199979705729  1.0000
  C   C32       1.0  0.14990823617752363  0.23889469538545433  0.9507293541938538  1.0000
  C   C33       1.0  0.12508805255454547  0.3133198662664185  0.9297071672374031  1.0000
  C   C34       1.0  0.17315792342900235  0.34624861185877637  0.8876145514439032  1.0000
  C   C35       1.0  0.2482906224699519  0.11851822051738746  0.9516325242333465  1.0000
  C   C36       1.0  0.0482930076797317  0.3568310110581622  0.9531987945118914  1.0000
  C   C37       1.0  0.8178272561936522  0.9894971497918096  0.1283848068636858  1.0000
  C   C38       1.0  0.7766894485261984  0.02387988905073268  0.08354239367078276  1.0000
  C   C39       1.0  0.7028635370872961  0.054262287426446766  0.10321358130460824  1.0000
  C   C40       1.0  0.6642697282693886  0.09336256792747134  0.06047876041098739  1.0000
  C   C41       1.0  0.7008206635095106  0.10154468221858085  0.9968657012655555  1.0000
  C   C42       1.0  0.7751366936409666  0.06872137379050974  0.9767242584075007  1.0000
  C   C43       1.0  0.8122376551227432  0.030250417190337803  0.020638512961959073  1.0000
  C   C44       1.0  0.585115277111548  0.12925522196409395  0.08211379856731331  1.0000
  C   C45       1.0  0.8146962226372026  0.07571878397702383  0.9092289426378173  1.0000
  C   C46       1.0  0.5391441524551013  0.29611491608601886  0.8228241193608029  1.0000
  C   C47       1.0  0.5822978362090224  0.24479075846409884  0.8664981820054081  1.0000
  C   C48       1.0  0.6115650473978815  0.26872606415292927  0.8872168282798116  1.0000
  C   C49       1.0  0.6506559203109745  0.22213244639441151  0.9291963660640833  1.0000
  C   C50       1.0  0.6604460547535566  0.1499186084310297  0.950745488884138  1.0000
  C   C51       1.0  0.6318585783595054  0.12504939565675957  0.9297726316885147  1.0000
  C   C52       1.0  0.592933657903785  0.17308265252938085  0.8876879769857026  1.0000
  C   C53       1.0  0.6814974618693554  0.2483365711417136  0.951618864900489  1.0000
  C   C54       1.0  0.6417007288227482  0.04823759342119162  0.9532825483693018  1.0000
  C   C55       1.0  0.4894954949715995  0.31782815833770434  0.6283842683685706  1.0000
  C   C56       1.0  0.5238771025719656  0.27668847843110483  0.5835431629794388  1.0000
  C   C57       1.0  0.5542593906384353  0.20286365645228008  0.6032139492481862  1.0000
  C   C58       1.0  0.593360739840058  0.1642691873189507  0.5604789603226764  1.0000
  C   C59       1.0  0.6015437071087746  0.20082001916292566  0.4968651564304027  1.0000
  C   C60       1.0  0.5687187473743619  0.2751369297819013  0.47672442503618845  1.0000
  C   C61       1.0  0.5302475834578289  0.3122374632556273  0.5206385895708935  1.0000
  C   C62       1.0  0.6292535466585321  0.0851151866209677  0.5821145403359083  1.0000
  C   C63       1.0  0.5757150991120807  0.31469674070699244  0.40923021671752485  1.0000
  C   C64       1.0  0.7961145469298074  0.03914393879235697  0.3228239351376629  1.0000
  C   C65       1.0  0.7447901698279935  0.08229714990562802  0.36649828187358213  1.0000
  C   C66       1.0  0.7687258984399535  0.11156521434599385  0.3872160125935836  1.0000
  C   C67       1.0  0.7221317941533698  0.1506568439743106  0.429195441731757  1.0000
  C   C68       1.0  0.6499180110805368  0.16044695617319596  0.4507445527430249  1.0000
  C   C69       1.0  0.6250501980241836  0.131858049575115  0.42977210295008933  1.0000
  C   C70       1.0  0.6730831055736104  0.09293198732976286  0.3876880549492725  1.0000
  C   C71       1.0  0.7483367120618494  0.18149865402642015  0.45161711251476805  1.0000
  C   C72       1.0  0.5482364743180382  0.14170094635677094  0.4532832907005685  1.0000
  C   C73       1.0  0.3178748571143259  0.5642230649464182  0.6283469620169697  1.0000
  C   C74       1.0  0.27669760807567195  0.6158953494525151  0.5835547245517747  1.0000
  C   C75       1.0  0.20286628892373668  0.6396641529250573  0.6032442612188404  1.0000
  C   C76       1.0  0.16424982471416164  0.6819382993583859  0.5605223746926741  1.0000
  C   C77       1.0  0.20076252468765424  0.7008703436945184  0.49690217011320953  1.0000
  C   C78       1.0  0.27507560876090753  0.6795412571161138  0.47674451126991385  1.0000
  C   C79       1.0  0.3121990533398672  0.6369604721532555  0.5206414306044281  1.0000
  C   C80       1.0  0.0850972183892083  0.7035110105762926  0.5821875583385037  1.0000
  C   C81       1.0  0.3146290860655583  0.7004330541737005  0.40924583980902457  1.0000
  C   C82       1.0  0.039075316851686595  0.8420529892977768  0.3228346941243104  1.0000
  C   C83       1.0  0.082220364067652  0.806547912271036  0.36652003182304344  1.0000
  C   C84       1.0  0.1114685724091373  0.7326246763223238  0.3872553553852001  1.0000
  C   C85       1.0  0.15055759997039786  0.6981303067026305  0.42924318992005805  1.0000
  C   C86       1.0  0.16035809786715297  0.7389970586893144  0.4507950318808582  1.0000
  C   C87       1.0  0.13178859418636785  0.8134253738661672  0.4298027406588219  1.0000
  C   C88       1.0  0.0928696867278731  0.8464158072850052  0.3877099980270345  1.0000
  C   C89       1.0  0.18141532629398674  0.6186574069062374  0.4516206676869815  1.0000
  C   C90       1.0  0.1416782370379721  0.85688759213393  0.4532802166589607  1.0000
  C   C91       1.0  0.5642409504881413  0.48953085533471363  0.628390112985649  1.0000
  C   C92       1.0  0.6159045395759009  0.5238486204161674  0.5835525314582384  1.0000
  C   C93       1.0  0.6396639551134058  0.554260086229597  0.6032128688518057  1.0000
  C   C94       1.0  0.6819049992865371  0.5933454797559391  0.5604698129321336  1.0000
  C   C95       1.0  0.7008118962116257  0.6014941214538538  0.4968593087763797  1.0000
  C   C96       1.0  0.6795040051298286  0.568621236666651  0.4767293617278413  1.0000
  C   C97       1.0  0.6369466015761347  0.5301630228405615  0.5206543663825871  1.0000
  C   C98       1.0  0.7034934855284121  0.6292884785458456  0.5820991994913884  1.0000
  C   C99       1.0  0.7004135352101031  0.5756311468077941  0.40924232616612227  1.0000
  C   C100      1.0  0.8418353792826565  0.7961896424233503  0.3228015618098823  1.0000
  C   C101      1.0  0.8063435101865721  0.7448571733026272  0.3664613682034812  1.0000
  C   C102      1.0  0.7324156741700207  0.7687647703598798  0.3872207923263603  1.0000
  C   C103      1.0  0.6979794923315338  0.7221245383945529  0.42920135298701473  1.0000
  C   C104      1.0  0.7388961374212641  0.649906877775507  0.4507297657936889  1.0000
  C   C105      1.0  0.8133201965304477  0.6250878583082341  0.4297075556401497  1.0000
  C   C106      1.0  0.8462491250077022  0.6731582674899029  0.3876146459134659  1.0000
  C   C107      1.0  0.6185185629083348  0.7482899291262727  0.4516327221165001  1.0000
  C   C108      1.0  0.8568298575095952  0.5482927491053573  0.45319981226740674  1.0000
  C   C109      1.0  0.5105014970136709  0.6821723844142513  0.37161614079961686  1.0000
  C   C110      1.0  0.47611988917836356  0.7233125550640552  0.4164570460848226  1.0000
  C   C111      1.0  0.4457386584033286  0.7971360019033823  0.3967859944485926  1.0000
  C   C112      1.0  0.4066378383529282  0.8357312569069392  0.4395212369767522  1.0000
  C   C113      1.0  0.3984553985481156  0.7991817002239473  0.5031339104499183  1.0000
  C   C114      1.0  0.4312803589873368  0.7248633173753736  0.5232752421559325  1.0000
  C   C115      1.0  0.4697499374294695  0.6877633741392017  0.47936187866459784  1.0000
  C   C116      1.0  0.3707445040990436  0.914885946385013  0.4178867762454389  1.0000
  C   C117      1.0  0.42428400796867993  0.6853030161912131  0.5907700452177947  1.0000
  C   C118      1.0  0.20388720461834708  0.9608543454085706  0.6771766388399599  1.0000
  C   C119      1.0  0.2552094661547955  0.9177029016354508  0.6335020391290486  1.0000
  C   C120      1.0  0.23127426427343775  0.8884356206445931  0.6127825888153283  1.0000
  C   C121      1.0  0.2778678384690565  0.8493451681188728  0.5708021056587856  1.0000
  C   C122      1.0  0.3500810936081109  0.839554762245399  0.5492537248587511  1.0000
  C   C123      1.0  0.3749510231980721  0.8681419024716137  0.5702272169052309  1.0000
  C   C124      1.0  0.3269181161185131  0.9070669832305573  0.612311665113907  1.0000
  C   C125      1.0  0.25166186423739834  0.8185047341745387  0.5483814895217879  1.0000
  C   C126      1.0  0.45176369031759117  0.8582989085998352  0.5467168948340202  1.0000
  C   C127      1.0  0.6821247790891433  0.43577551388091257  0.3716535646581818  1.0000
  C   C128      1.0  0.7233020290960538  0.3841032303431008  0.41644659140192186  1.0000
  C   C129      1.0  0.797133347528927  0.36033491712962024  0.3967564599916501  1.0000
  C   C130      1.0  0.835749811503568  0.3180612614394962  0.4394781464138902  1.0000
  C   C131      1.0  0.7992376401686628  0.2991280385483465  0.5030982210939072  1.0000
  C   C132      1.0  0.7249234997579774  0.32045751926397525  0.5232569401518178  1.0000
  C   C133      1.0  0.6878005843017334  0.36303712615595896  0.479360285557135  1.0000
  C   C134      1.0  0.9149018889264865  0.29648825557871594  0.4178129037007496  1.0000
  C   C135      1.0  0.6853705508569803  0.29956503439457544  0.590755281609333  1.0000
  C   C136      1.0  0.9609222050038609  0.15794784906533033  0.6771665633897256  1.0000
  C   C137      1.0  0.9177798000838564  0.19345194220143486  0.6334797590722798  1.0000
  C   C138      1.0  0.8885315907883748  0.26737615915241275  0.6127436406629841  1.0000
  C   C139      1.0  0.8494430918799551  0.301870332187633  0.5707556706600911  1.0000
  C   C140      1.0  0.8396425951721367  0.261002108455479  0.5492048236503636  1.0000
  C   C141      1.0  0.8682115692460781  0.18657497086535818  0.5701964554932958  1.0000
  C   C142      1.0  0.9071310053574138  0.15358434086204656  0.6122890626570481  1.0000
  C   C143      1.0  0.8185864238160435  0.3813418578128136  0.5483787168042299  1.0000
  C   C144      1.0  0.8583213979765743  0.14311245843886405  0.5467193150651184  1.0000
  C   C145      1.0  0.43575921364911346  0.5104680171672058  0.3716096834782618  1.0000
  C   C146      1.0  0.38409668164635485  0.4761513316305611  0.41644678839707433  1.0000
  C   C147      1.0  0.3603367388941265  0.44573908188348116  0.3967877759579607  1.0000
  C   C148      1.0  0.31809569278450306  0.4066536864205687  0.4395292533205366  1.0000
  C   C149      1.0  0.2991887973260319  0.3985060281456327  0.5031409358255203  1.0000
  C   C150      1.0  0.3204961587867388  0.4313791085490239  0.5232702290635487  1.0000
  C   C151      1.0  0.3630540905091593  0.4698371253064979  0.4793446943014958  1.0000
  C   C152      1.0  0.2965072075251243  0.3707116705694915  0.41790065047123903  1.0000
  C   C153      1.0  0.2995871561561287  0.4243694915983267  0.5907561397747545  1.0000
  C   C154      1.0  0.1581663730273064  0.2038110974301546  0.6771995902051771  1.0000
  C   C155      1.0  0.1936577127372416  0.2551432714238686  0.6335393301050019  1.0000
  C   C156      1.0  0.26758502059932704  0.23123685340577543  0.6127804305208358  1.0000
  C   C157      1.0  0.3020201453813199  0.2778779697673883  0.5708003353315904  1.0000
  C   C158      1.0  0.2611050852533623  0.3500930757236418  0.5492707379794483  1.0000
  C   C159      1.0  0.18667943971578177  0.3749136664307358  0.5702929543292257  1.0000
  C   C160      1.0  0.1537515680600876  0.326842863595978  0.6123851984805667  1.0000
  C   C161      1.0  0.3814821304228957  0.2517126751575063  0.5483673112442844  1.0000
  C   C162      1.0  0.14316872215001547  0.45170867854349683  0.5468015633812442  1.0000
  C   C163      1.0  0.9357735587598268  0.18212431767640436  0.8716529879027418  1.0000
  C   C164      1.0  0.8841020171720118  0.22330150850817188  0.916446132850467  1.0000
  C   C165      1.0  0.8603347557896015  0.29713309203557975  0.8967562560626874  1.0000
  C   C166      1.0  0.8180615083208593  0.3357493827338376  0.9394774530933887  1.0000
  C   C167      1.0  0.7991287784496564  0.2992365690811313  0.003098333983387992  1.0000
  C   C168      1.0  0.8204571417734028  0.22492410297051907  0.023256034020164552  1.0000
  C   C169      1.0  0.8630371356187039  0.1878006948492584  0.9793586754563821  1.0000
  C   C170      1.0  0.796487085843431  0.41490253577280356  0.917814326517828  1.0000
  C   C171      1.0  0.7995654344201383  0.18537098332783597  0.09075333753061446  1.0000
  C   C172      1.0  0.6579490215354936  0.46092471417910025  0.17716425474242214  1.0000
  C   C173      1.0  0.6934525809742667  0.4177799300882016  0.13347942735679647  1.0000
  C   C174      1.0  0.7673755726254327  0.3885316825757387  0.11274421753701351  1.0000
  C   C175      1.0  0.8018707186910348  0.34944184001144424  0.07075560730848453  1.0000
  C   C176      1.0  0.7610041096329782  0.3396411848896719  0.04920456182036762  1.0000
  C   C177      1.0  0.686574806303291  0.3682113216450987  0.07019699979340287  1.0000
  C   C178      1.0  0.6535848145877593  0.4071301659236399  0.11228919429521496  1.0000
  C   C179      1.0  0.8813416622447361  0.31858482454827475  0.0483790306012893  1.0000
  C   C180      1.0  0.643113011346628  0.35832111679734174  0.0467191859538759  1.0000
  C   C181      1.0  0.010466936211294398  0.9357600231625657  0.8716094292292454  1.0000
  C   C182      1.0  0.9761520727908602  0.8840953543494551  0.9164463325132747  1.0000
  C   C183      1.0  0.9457402066663434  0.8603341292729072  0.8967884768925387  1.0000
  C   C184      1.0  0.9066545812329351  0.8180950756672017  0.939530025236181  1.0000
  C   C185      1.0  0.8985070388747544  0.7991888359881898  0.0031413482865615574  1.0000
  C   C186      1.0  0.9313784591253763  0.8204960813261266  0.023270970912975027  1.0000
  C   C187      1.0  0.969837951535716  0.8630534064173718  0.9793451261483954  1.0000
  C   C188      1.0  0.8707120260409337  0.7965060638488883  0.9179014624530456  1.0000
  C   C189      1.0  0.9243703346791816  0.7995865642928166  0.09075687738376106  1.0000
  C   C190      1.0  0.7038117912488389  0.6581646195347305  0.17719770377783564  1.0000
  C   C191      1.0  0.7551436925649212  0.693657307682308  0.1335385846644926  1.0000
  C   C192      1.0  0.7312365707000976  0.7675842128425787  0.11278013830024501  1.0000
  C   C193      1.0  0.7778766749112052  0.8020202980143765  0.07080085407078257  1.0000
  C   C194      1.0  0.8500929862479152  0.7611047668863549  0.049270955043937595  1.0000
  C   C195      1.0  0.8749136987586753  0.6866789086777133  0.0702932066362861  1.0000
  C   C196      1.0  0.8268427693753466  0.6537510460292143  0.11238510398337813  1.0000
  C   C197      1.0  0.7517100717867676  0.8814814388230306  0.04836831511175909  1.0000
  C   C198      1.0  0.9517087433985479  0.6431682546291739  0.0468013792578647  1.0000
  C   C199      1.0  0.182171849975866  0.010506534020301205  0.8716146435187255  1.0000
  C   C200      1.0  0.2233101872501564  0.9761226171746459  0.9164577160907332  1.0000
  C   C201      1.0  0.2971355709759678  0.9457384524105947  0.8967874643406688  1.0000
  C   C202      1.0  0.3357293790605595  0.9066376801980879  0.9395216960596715  1.0000
  C   C203      1.0  0.2991795018594273  0.8984556644495143  0.003135073443651477  1.0000
  C   C204      1.0  0.22486347053904857  0.9312804446230487  0.02327552135063366  1.0000
  C   C205      1.0  0.18776145271983313  0.9697517953604518  0.9793623270107972  1.0000
  C   C206      1.0  0.4148843595903031  0.8707443393179235  0.9178871171785233  1.0000
  C   C207      1.0  0.1853028852053669  0.9242834285737657  0.09077189733493907  1.0000
  C   C208      1.0  0.46085601096309853  0.7038844466749696  0.17717508235990218  1.0000
  C   C209      1.0  0.41770391413594876  0.755208015511748  0.1335014025897365  1.0000
  C   C210      1.0  0.3884356449223461  0.7312735932509254  0.11278243250820463  1.0000
  C   C211      1.0  0.3493442433564056  0.7778674075939165  0.07080303019196081  1.0000
  C   C212      1.0  0.33955305353038767  0.8500806586922639  0.04925576243366686  1.0000
  C   C213      1.0  0.36814211564802685  0.8749497724563116  0.07022801312124474  1.0000
  C   C214      1.0  0.40706756355340445  0.8269168087741434  0.11231154297355071  1.0000
  C   C215      1.0  0.31850323165405564  0.7516625964872221  0.04838138526999813  1.0000
  C   C216      1.0  0.3582994362970098  0.951762262019557  0.046718031804559274  1.0000
  O   O1        1.0  0.04138819610706428  0.7838454075809979  0.1844547800369158  1.0000
  O   O2        1.0  0.044870851394278995  0.8853045476894793  0.10666562731712764  1.0000
  O   O3        1.0  0.4096891518860133  0.5127560749354744  0.8059955767846249  1.0000
  O   O4        1.0  0.301704422638899  0.5316611873452075  0.8060301800235479  1.0000
  O   O5        1.0  0.99037255942045  0.04139651435377104  0.1844727987628972  1.0000
  O   O6        1.0  0.9630561320884181  0.04491357808559857  0.10676466669607285  1.0000
  O   O7        1.0  0.27170786833541166  0.40947941833830004  0.8059206274569989  1.0000
  O   O8        1.0  0.36076642994004254  0.30148072466679593  0.8060602662123344  1.0000
  O   O9        1.0  0.7837541894902743  0.9903151057585337  0.18447081805273755  1.0000
  O   O10       1.0  0.8852520851566225  0.9630012529674732  0.1067533840817916  1.0000
  O   O11       1.0  0.51274586728033  0.2716567994711241  0.806043239945545  1.0000
  O   O12       1.0  0.5317737013825905  0.3606813790331599  0.8059781329147812  1.0000
  O   O13       1.0  0.4903123795632637  0.28375436465591974  0.6844706175233386  1.0000
  O   O14       1.0  0.46300280309874603  0.3852523332593024  0.6067525967347008  1.0000
  O   O15       1.0  0.7716564738153479  0.012745057858929125  0.3060440710502021  1.0000
  O   O16       1.0  0.8606820774873257  0.031774607145386775  0.3059766601269516  1.0000
  O   O17       1.0  0.28384467201424707  0.5413887450209175  0.6844540838712165  1.0000
  O   O18       1.0  0.3853045374920896  0.5448711883625563  0.606665509963989  1.0000
  O   O19       1.0  0.0127513912354118  0.9096906316734987  0.3059996341541904  1.0000
  O   O20       1.0  0.0316582457565318  0.8017058302258349  0.3060323687105538  1.0000
  O   O21       1.0  0.5413958545168568  0.4903719878796126  0.6844721464890499  1.0000
  O   O22       1.0  0.5449139174365454  0.46305628122195963  0.6067621271301606  1.0000
  O   O23       1.0  0.9094791999408398  0.7717085969396964  0.30592481448017844  1.0000
  O   O24       1.0  0.8014812990982135  0.8607664014078369  0.3060648373365352  1.0000
  O   O25       1.0  0.9235850817570748  0.9236217484947818  0.22916057334538922  1.0000
  O   O26       1.0  0.4236210753734396  0.42358466545806556  0.7291597803510399  1.0000
  O   O27       1.0  0.5096867267841886  0.7162449005308037  0.31552905523736996  1.0000
  O   O28       1.0  0.536993661436867  0.6147479163022069  0.39324893728400656  1.0000
  O   O29       1.0  0.22834633455436656  0.9872528326889092  0.6939558373520784  1.0000
  O   O30       1.0  0.1393202032120442  0.9682244629257541  0.6940241674533212  1.0000
  O   O31       1.0  0.7161544360205099  0.45861003087502905  0.3155469729112426  1.0000
  O   O32       1.0  0.614694570058539  0.4551275870492476  0.39333515217919063  1.0000
  O   O33       1.0  0.9872450742684504  0.09030961885629578  0.6940026891430622  1.0000
  O   O34       1.0  0.9683382197615839  0.19829540227450343  0.6939699490181042  1.0000
  O   O35       1.0  0.4586037797786274  0.5096285529522506  0.3155267904918306  1.0000
  O   O36       1.0  0.4550867753392964  0.5369414127249427  0.3932375394343027  1.0000
  O   O37       1.0  0.0905225533373724  0.22829214388209348  0.6940771268134257  1.0000
  O   O38       1.0  0.1985209813804687  0.1392341413770595  0.6939357845712095  1.0000
  O   O39       1.0  0.9586082676952398  0.21615435026902943  0.8155461648071739  1.0000
  O   O40       1.0  0.9551240245130045  0.11469579797739733  0.8933341453739773  1.0000
  O   O41       1.0  0.5903115359134218  0.4872489787070436  0.19399990430304107  1.0000
  O   O42       1.0  0.698296266584407  0.4683419038086428  0.19396649611912403  1.0000
  O   O43       1.0  0.0096249602636647  0.9586048128159778  0.8155266800901231  1.0000
  O   O44       1.0  0.03693980261967059  0.9550893217763985  0.8932360022710101  1.0000
  O   O45       1.0  0.7282917613680266  0.5905216088794845  0.1940745576664897  1.0000
  O   O46       1.0  0.6392342556167064  0.6985199079296224  0.19393346405726675  1.0000
  O   O47       1.0  0.21624703106992627  0.009689264429440025  0.8155278847850127  1.0000
  O   O48       1.0  0.11474754796418549  0.03700174158039719  0.8932445523794285  1.0000
  O   O49       1.0  0.48725535295942973  0.7283421696367756  0.19395529619981755  1.0000
  O   O50       1.0  0.46822487751519754  0.6393175929631167  0.19402266469644067  1.0000
  O   O51       1.0  0.5763785603601618  0.576414894855674  0.27084034611624475  1.0000
  O   O52       1.0  0.07641561009328511  0.07637889039547473  0.77083828723476  1.0000
