data_image0
_chemical_formula_structural       Ni12H144C228N12O52
_chemical_formula_sum              "Ni12 H144 C228 N12 O52"
_cell_length_a       25.491822537752437
_cell_length_b       25.491945912035746
_cell_length_c       25.49198642265357
_cell_angle_alpha    109.47117800817475
_cell_angle_beta     109.47146738636097
_cell_angle_gamma    109.47131896013246

_space_group_name_H-M_alt    "P 1"
_space_group_IT_number       1

loop_
  _space_group_symop_operation_xyz
  'x, y, z'

loop_
  _atom_site_type_symbol
  _atom_site_label
  _atom_site_symmetry_multiplicity
  _atom_site_fract_x
  _atom_site_fract_y
  _atom_site_fract_z
  _atom_site_occupancy
  Ni  Ni1       1.0  1.1082285740287582e-06  0.9222184180670682  0.3639156775847783  1.0000
  Ni  Ni2       1.0  0.44169860877092043  0.07779096361662849  0.07779446952655886  1.0000
  Ni  Ni3       1.0  0.5583010098666251  0.6360897791114655  0.6360903856047316  1.0000
  Ni  Ni4       1.0  3.2256741772591257e-06  0.3639133717574691  0.9222230948006214  1.0000
  Ni  Ni5       1.0  0.07778487069328574  0.07778935174732023  0.44169561314376443  1.0000
  Ni  Ni6       1.0  0.9222078640686603  0.36390788161909166  0.9999984478624953  1.0000
  Ni  Ni7       1.0  0.3639117086953619  0.9222183336836095  1.7151454230802596e-06  1.0000
  Ni  Ni8       1.0  0.6360852780633832  0.6360914384734784  0.5583059853051182  1.0000
  Ni  Ni9       1.0  0.9222175562164379  7.089811745715923e-06  0.36391182753034457  1.0000
  Ni  Ni10      1.0  0.6360886573161793  0.5583084639891355  0.6360984953414005  1.0000
  Ni  Ni11      1.0  0.07779391637743063  0.4417014139656388  0.07778759346029322  1.0000
  Ni  Ni12      1.0  0.36391095479019947  0.9999965070865926  0.9222148488092756  1.0000
  H   H1        1.0  0.7166851080055919  0.6176883813980966  0.5007663729927786  1.0000
  H   H2        1.0  0.8830732062321403  0.382315748428212  0.09900098023700817  1.0000
  H   H3        1.0  0.11692070416717827  0.21592571583340703  0.49924649687086736  1.0000
  H   H4        1.0  0.2833168453281941  0.7840770562728849  0.9009971717955453  1.0000
  H   H5        1.0  0.3823153005373428  0.09899705238240131  0.8830770533951978  1.0000
  H   H6        1.0  0.6176931915651379  0.5007644830064493  0.7166954972281161  1.0000
  H   H7        1.0  0.7840761624405201  0.9009976413074838  0.28331890981252883  1.0000
  H   H8        1.0  0.215941301772304  0.4992475497401969  0.11692495021198819  1.0000
  H   H9        1.0  0.9010070036298501  0.2833216102761327  0.7840755679198993  1.0000
  H   H10       1.0  0.49923973032323926  0.11692735056564636  0.21593683432347896  1.0000
  H   H11       1.0  0.09900530906118375  0.8830638819105799  0.38231966768306336  1.0000
  H   H12       1.0  0.5007578259530517  0.7166869248241952  0.617687380304119  1.0000
  H   H13       1.0  0.09899709406116831  0.3823187166190393  0.8830681439752012  1.0000
  H   H14       1.0  0.5007593573492316  0.6176837551667307  0.7166866260675634  1.0000
  H   H15       1.0  0.9009985783100659  0.7840597442032191  0.28331192721086756  1.0000
  H   H16       1.0  0.49923878204194944  0.21592870112765897  0.1169282329772443  1.0000
  H   H17       1.0  0.28330817989085216  0.9009917469893336  0.7840711859122109  1.0000
  H   H18       1.0  0.11692431336414436  0.4992430751335206  0.21591975539892871  1.0000
  H   H19       1.0  0.8830725329130826  0.0990037272229997  0.3823206246374368  1.0000
  H   H20       1.0  0.7166834987805402  0.5007672596182149  0.6176831738832365  1.0000
  H   H21       1.0  0.6176853506272337  0.7166943081502667  0.500765359699294  1.0000
  H   H22       1.0  0.38231287880444137  0.8830693532984881  0.09899335970347788  1.0000
  H   H23       1.0  0.2159305367504842  0.11692938380397777  0.4992490235864294  1.0000
  H   H24       1.0  0.7840660392832886  0.28330367000571505  0.900983925943322  1.0000
  H   H25       1.0  0.7740406544400998  0.6698597839310169  0.45549258961326433  1.0000
  H   H26       1.0  0.7856171735338291  0.33013276801172964  0.10416310454706235  1.0000
  H   H27       1.0  0.21436601502521305  0.3185526869209312  0.5445205675996974  1.0000
  H   H28       1.0  0.22595691901678083  0.6814475223292219  0.89580516021271  1.0000
  H   H29       1.0  0.3301412340271667  0.10417963825766208  0.7856313925956188  1.0000
  H   H30       1.0  0.6698657114332461  0.4554863974902687  0.7740411432053449  1.0000
  H   H31       1.0  0.6814490580369608  0.8958145992234917  0.22596556336090165  1.0000
  H   H32       1.0  0.31855790529176886  0.5445174070915613  0.21437668315596886  1.0000
  H   H33       1.0  0.8958082331075585  0.22595782767128725  0.681436507981779  1.0000
  H   H34       1.0  0.5445156831530724  0.2143768180163832  0.31855791720595766  1.0000
  H   H35       1.0  0.1041802971006759  0.785616105954368  0.3301411009794465  1.0000
  H   H36       1.0  0.4554869860839474  0.7740423576007914  0.6698633547289392  1.0000
  H   H37       1.0  0.10419545154393717  0.33015553743616266  0.7856287029442584  1.0000
  H   H38       1.0  0.4554890502485519  0.6698571667607638  0.7740429100422048  1.0000
  H   H39       1.0  0.8958258663457315  0.6814377313119453  0.22595915646742532  1.0000
  H   H40       1.0  0.5445137967305768  0.31855305816544893  0.214377720109006  1.0000
  H   H41       1.0  0.22595609370667802  0.8958157120418662  0.6814472946357668  1.0000
  H   H42       1.0  0.2143723390697332  0.5445129822841608  0.31854579908271324  1.0000
  H   H43       1.0  0.7856211989478366  0.10417753717749892  0.3301459961130321  1.0000
  H   H44       1.0  0.7740401875270421  0.45549270422172583  0.6698482837019454  1.0000
  H   H45       1.0  0.66985968340429  0.7740428852854039  0.4554908083093069  1.0000
  H   H46       1.0  0.33014206921527733  0.7856245809948562  0.10417882100836114  1.0000
  H   H47       1.0  0.3185553668026344  0.2143779662766789  0.5445232402432439  1.0000
  H   H48       1.0  0.6814468303060081  0.2259575442500364  0.8958139916230436  1.0000
  H   H49       1.0  0.8243630424422932  0.7204741308783796  0.42860608758315544  1.0000
  H   H50       1.0  0.7081256638156502  0.27952333432293136  0.10387850649017588  1.0000
  H   H51       1.0  0.2918656706370655  0.39576712628027627  0.5714040929303223  1.0000
  H   H52       1.0  0.17562643365401684  0.6042234138084907  0.896090381288495  1.0000
  H   H53       1.0  0.2795297265148519  0.10389249724162386  0.7081356324485241  1.0000
  H   H54       1.0  0.7204775889577559  0.4285981145601879  0.8243524578651461  1.0000
  H   H55       1.0  0.6042300109652885  0.8960991723149903  0.1756348743662458  1.0000
  H   H56       1.0  0.39576700817015364  0.5714034882561734  0.2918767402800172  1.0000
  H   H57       1.0  0.8961076908824452  0.17563156547992523  0.6042314263284682  1.0000
  H   H58       1.0  0.5714037039157842  0.29187940984076727  0.3957721691884116  1.0000
  H   H59       1.0  0.1038942695036126  0.708127616560425  0.27952099028056676  1.0000
  H   H60       1.0  0.4286012870880495  0.8243616212576369  0.7204761532430765  1.0000
  H   H61       1.0  0.10389740614787246  0.2795262866753274  0.7081260764667973  1.0000
  H   H62       1.0  0.4285996546786706  0.7204677267204147  0.8243692857107875  1.0000
  H   H63       1.0  0.8961173664216061  0.604238500836722  0.17563263641374488  1.0000
  H   H64       1.0  0.5714019993431733  0.3957646825269094  0.29187805022764474  1.0000
  H   H65       1.0  0.17563326722014938  0.8961069583086426  0.6042377768096188  1.0000
  H   H66       1.0  0.2918646584700966  0.5713992978554145  0.39575652663121724  1.0000
  H   H67       1.0  0.7081217460681586  0.10388094797042417  0.2795247415983866  1.0000
  H   H68       1.0  0.8243747983867278  0.42859812560466537  0.7204655152568192  1.0000
  H   H69       1.0  0.720470175194734  0.8243654392469395  0.4286032936528059  1.0000
  H   H70       1.0  0.279527367346354  0.7081273078992893  0.10387870431711126  1.0000
  H   H71       1.0  0.3957622275206134  0.29188094886655597  0.5714063042352535  1.0000
  H   H72       1.0  0.6042274973577904  0.1756303749890479  0.8961011952016733  1.0000
  H   H73       1.0  0.8928511760563604  0.7899363862348135  0.403019549619593  1.0000
  H   H74       1.0  0.6130801343813629  0.2100646688123789  0.10291453017192968  1.0000
  H   H75       1.0  0.38691490737774353  0.4898426085559321  0.596992490229475  1.0000
  H   H76       1.0  0.10714735705155908  0.5101575863664888  0.8970829779245902  1.0000
  H   H77       1.0  0.21006721563936995  0.10292050450427576  0.61308719504013  1.0000
  H   H78       1.0  0.7899348562064432  0.4030122046656146  0.8928461100950358  1.0000
  H   H79       1.0  0.5101573099617484  0.8970759835666443  0.10714739360079074  1.0000
  H   H80       1.0  0.4898434236819397  0.5969960224927604  0.3869314524504333  1.0000
  H   H81       1.0  0.8970859966722313  0.10714260220273526  0.5101605523260203  1.0000
  H   H82       1.0  0.5969874653971984  0.3869279417502938  0.48984692120566825  1.0000
  H   H83       1.0  0.10292866234404123  0.61308109934469  0.21006089636154007  1.0000
  H   H84       1.0  0.4030088121926453  0.8928458288261681  0.7899346555477892  1.0000
  H   H85       1.0  0.10291979975894355  0.2100591227124582  0.6130774551767858  1.0000
  H   H86       1.0  0.40300893882947253  0.7899294759444826  0.8928520182565406  1.0000
  H   H87       1.0  0.8970830961332225  0.5101571397561315  0.10713730496539851  1.0000
  H   H88       1.0  0.5969859663330013  0.48984244177304964  0.3869233690230161  1.0000
  H   H89       1.0  0.10714670532819047  0.8970857304363234  0.5101650521125833  1.0000
  H   H90       1.0  0.3869123312021188  0.5969901881351092  0.48983811408313477  1.0000
  H   H91       1.0  0.6130731495505728  0.10290896959856613  0.21006422677866252  1.0000
  H   H92       1.0  0.8928570197165012  0.4030124731979895  0.78993511361481  1.0000
  H   H93       1.0  0.7899345680572337  0.8928543091540317  0.4030186080429062  1.0000
  H   H94       1.0  0.210072237975531  0.6130849530969655  0.10291557069437125  1.0000
  H   H95       1.0  0.4898365472939048  0.3869321197527853  0.5969950879735677  1.0000
  H   H96       1.0  0.5101523510510971  0.10714016501926672  0.897076092607385  1.0000
  H   H97       1.0  0.8966579268090128  0.7936497186824456  0.16411248447679602  1.0000
  H   H98       1.0  0.3704516922369904  0.20634982382561876  0.103003661669284  1.0000
  H   H99       1.0  0.629531196149891  0.7325552647206095  0.8358967037774719  1.0000
  H   H100      1.0  0.10334069519667105  0.2674603222929405  0.8969842911389704  1.0000
  H   H101      1.0  0.20636362178535705  0.10301704096212913  0.37047185683402256  1.0000
  H   H102      1.0  0.7936476586524178  0.1641085309152501  0.896652256102449  1.0000
  H   H103      1.0  0.26744574343163635  0.8969764758692093  0.10334066793713254  1.0000
  H   H104      1.0  0.7325411291748408  0.8358811995359048  0.6295334779918278  1.0000
  H   H105      1.0  0.8969853853875234  0.10334622327858493  0.2674539194807791  1.0000
  H   H106      1.0  0.8358894086349622  0.6295406404690098  0.7325571268743546  1.0000
  H   H107      1.0  0.10302317625646404  0.3704688356164497  0.20635740676178227  1.0000
  H   H108      1.0  0.1641118115779605  0.8966555117515965  0.7936537627865619  1.0000
  H   H109      1.0  0.10302216407946928  0.20636626665494615  0.3704762224336449  1.0000
  H   H110      1.0  0.16410968860991196  0.7936432226144416  0.8966622502244518  1.0000
  H   H111      1.0  0.8969927221764067  0.26745271460518444  0.1033389790564315  1.0000
  H   H112      1.0  0.8358953569921963  0.732557235429354  0.6295452156671432  1.0000
  H   H113      1.0  0.10333974691464946  0.896990981588594  0.26746188815812405  1.0000
  H   H114      1.0  0.629539581455653  0.8358995574996869  0.7325534811378561  1.0000
  H   H115      1.0  0.3704596114590117  0.10300357863930996  0.2063548924974583  1.0000
  H   H116      1.0  0.8966636254362326  0.16411083772246837  0.7936418893915089  1.0000
  H   H117      1.0  0.7936452117850621  0.8966632320151363  0.164117941869769  1.0000
  H   H118      1.0  0.20636482539065068  0.37046868084052426  0.10300852673692164  1.0000
  H   H119      1.0  0.7325427000982996  0.6295410207583315  0.8358931880655618  1.0000
  H   H120      1.0  0.26744605740063315  0.10333257526917082  0.8969792358147686  1.0000
  H   H121      1.0  0.8320016082358636  0.7281563601502798  0.04639214211564284  1.0000
  H   H122      1.0  0.31822710517245406  0.2718442584354364  0.10383726058159941  1.0000
  H   H123      1.0  0.6817595302547372  0.78561780123092  0.9536183561807831  1.0000
  H   H124      1.0  0.16798693878906312  0.2143826947076872  0.8961308892208208  1.0000
  H   H125      1.0  0.2718518772508602  0.10384794765484885  0.31823842069325553  1.0000
  H   H126      1.0  0.7281550569066509  0.04639007473144844  0.8319932576545171  1.0000
  H   H127      1.0  0.214380725129139  0.8961391836785565  0.16799826810584045  1.0000
  H   H128      1.0  0.785613131005718  0.9536029131474351  0.6817535043441014  1.0000
  H   H129      1.0  0.8961553057931865  0.16800358905986468  0.21438650480062915  1.0000
  H   H130      1.0  0.9536114702011459  0.6817633017188099  0.7856191516372845  1.0000
  H   H131      1.0  0.10385461201489213  0.31823612845429483  0.27184899806374574  1.0000
  H   H132      1.0  0.04639050352990624  0.8320030949139791  0.7281552497873633  1.0000
  H   H133      1.0  0.10385382398979456  0.271855638394129  0.3182408495098202  1.0000
  H   H134      1.0  0.046387423362389754  0.7281466686253707  0.8320064775430468  1.0000
  H   H135      1.0  0.8961557921655581  0.21438617968561846  0.16799638496127764  1.0000
  H   H136      1.0  0.9536159683892366  0.7856158611389786  0.6817691959142212  1.0000
  H   H137      1.0  0.1679883180378852  0.8961438334550849  0.21438982189496872  1.0000
  H   H138      1.0  0.6817684885973846  0.953620877004532  0.7856158028904617  1.0000
  H   H139      1.0  0.31823215064892435  0.10384125354862306  0.27184809943074123  1.0000
  H   H140      1.0  0.8320083073018478  0.04638888636097237  0.728143234740372  1.0000
  H   H141      1.0  0.7281482218042044  0.8320073955040928  0.046396025351341914  1.0000
  H   H142      1.0  0.2718508190317904  0.3182351222647668  0.10383708945800413  1.0000
  H   H143      1.0  0.7856108566733866  0.6817661472027439  0.953614797908628  1.0000
  H   H144      1.0  0.21438157316326556  0.16798903951054445  0.8961355101444751  1.0000
  C   C1        1.0  0.7080266230649882  0.6526854716443324  0.4896418191758657  1.0000
  C   C2        1.0  0.8369523780879504  0.3473154926450093  0.055338279965269535  1.0000
  C   C3        1.0  0.16304207357572406  0.21839329585284867  0.5103666876655595  1.0000
  C   C4        1.0  0.2919682971609347  0.781605669546856  0.94464710116565  1.0000
  C   C5        1.0  0.3473162416817671  0.055342498581083366  0.8369541578776064  1.0000
  C   C6        1.0  0.6526868313965009  0.4896392397930356  0.7080313995177789  1.0000
  C   C7        1.0  0.7816097689677974  0.9446509737095923  0.2919747104208311  1.0000
  C   C8        1.0  0.2183977632327085  0.5103649091604582  0.1630405861422943  1.0000
  C   C9        1.0  0.94465753391421  0.2919735721890859  0.7815990543883659  1.0000
  C   C10       1.0  0.510362228893591  0.16304629693492956  0.21839797533890257  1.0000
  C   C11       1.0  0.05534879237261928  0.8369472120393835  0.3473220593249239  1.0000
  C   C12       1.0  0.48963448265677545  0.708029698876217  0.6526854660372621  1.0000
  C   C13       1.0  0.055349477644000354  0.34731930242813996  0.8369443842020701  1.0000
  C   C14       1.0  0.4896349258060651  0.6526815035834159  0.7080308427899807  1.0000
  C   C15       1.0  0.9446578061270471  0.7816019588403125  0.2919741181644397  1.0000
  C   C16       1.0  0.5103625782724066  0.21839144120642126  0.16304897288591755  1.0000
  C   C17       1.0  0.29196867616312977  0.9446482253674305  0.7816077608462351  1.0000
  C   C18       1.0  0.1630479144691605  0.5103652103921945  0.21838551638057885  1.0000
  C   C19       1.0  0.8369524665821186  0.05534614436368908  0.3473203704545895  1.0000
  C   C20       1.0  0.7080283521372052  0.4896411803429217  0.6526784332592896  1.0000
  C   C21       1.0  0.6526810331569523  0.7080343461623715  0.4896410001218642  1.0000
  C   C22       1.0  0.34731461869974817  0.8369461139314965  0.05533835004776237  1.0000
  C   C23       1.0  0.21839289893424055  0.16304869587591503  0.5103697652481216  1.0000
  C   C24       1.0  0.7816084300574602  0.29196589111212035  0.9446432231920171  1.0000
  C   C25       1.0  0.7398058382268998  0.6825442674640811  0.4641581936229216  1.0000
  C   C26       1.0  0.7816064759865355  0.3174544528741805  0.05724963108548312  1.0000
  C   C27       1.0  0.21838721607167597  0.27565229567630206  0.5358507132952894  1.0000
  C   C28       1.0  0.2601921121668339  0.7243473406827617  0.942731121917305  1.0000
  C   C29       1.0  0.31745529313411674  0.057260201917891565  0.781611739923015  1.0000
  C   C30       1.0  0.6825489533663924  0.4641531231997859  0.7398073665303927  1.0000
  C   C31       1.0  0.724349932553423  0.9427365926430511  0.26019913299163033  1.0000
  C   C32       1.0  0.27565302185128354  0.53585054488331  0.21839023847081754  1.0000
  C   C33       1.0  0.9427324812487966  0.26019189136601983  0.7243405919392742  1.0000
  C   C34       1.0  0.5358470194631052  0.21839099325511313  0.2756537156697618  1.0000
  C   C35       1.0  0.05726233694118579  0.7816034083964709  0.3174601955949967  1.0000
  C   C36       1.0  0.4641527273956993  0.7398068187066114  0.6825468938810815  1.0000
  C   C37       1.0  0.05726767364029674  0.3174610004145179  0.7816076764462849  1.0000
  C   C38       1.0  0.4641541270661519  0.6825426067004939  0.7398073300929796  1.0000
  C   C39       1.0  0.9427417864779455  0.7243426954482503  0.2601971407062536  1.0000
  C   C40       1.0  0.535846808016764  0.27565110859938363  0.2183926573926343  1.0000
  C   C41       1.0  0.2601921024326117  0.9427352635424242  0.7243491786859623  1.0000
  C   C42       1.0  0.21838859129012186  0.5358489159866053  0.2756457588346351  1.0000
  C   C43       1.0  0.7816062062367735  0.05725893802281219  0.31745943569005425  1.0000
  C   C44       1.0  0.7398066429574044  0.46415665915528603  0.6825390273228465  1.0000
  C   C45       1.0  0.6825437926179632  0.7398082329581683  0.46415752557487633  1.0000
  C   C46       1.0  0.3174549945547085  0.781603373544236  0.057257382657105955  1.0000
  C   C47       1.0  0.2756526902376917  0.2183946413861831  0.5358545869093091  1.0000
  C   C48       1.0  0.7243503182615568  0.26019505531897386  0.9427329557644556  1.0000
  C   C49       1.0  0.7292731583464725  0.7292738207474371  0.45232410584564076  1.0000
  C   C50       1.0  0.7230411917050149  0.2707230415468445  0.9999867935225382  1.0000
  C   C51       1.0  0.2769517363064367  0.2769558497350957  0.5476828617972346  1.0000
  C   C52       1.0  0.2707212245140908  0.7230406129147368  0.9999875467702567  1.0000
  C   C53       1.0  0.27072541414955237  0.9999969880638132  0.7230482738824833  1.0000
  C   C54       1.0  0.7292782127008619  0.4523214046684173  0.7292666516384827  1.0000
  C   C55       1.0  0.7230441114770726  0.999994947677351  0.2707263759124603  1.0000
  C   C56       1.0  0.2769561628457779  0.5476844608045112  0.2769499304981978  1.0000
  C   C57       1.0  3.4350678247649763e-06  0.27072404408866635  0.7230423652746365  1.0000
  C   C58       1.0  0.5476833215451932  0.2769547394475111  0.27695887937797187  1.0000
  C   C59       1.0  4.0958157255474704e-06  0.7230405447776035  0.27072891184590736  1.0000
  C   C60       1.0  0.45231930297538264  0.729272982687867  0.7292768919384615  1.0000
  C   C61       1.0  0.7670302665220845  0.7670336989317407  0.4316604610267236  1.0000
  C   C62       1.0  0.6646198157911909  0.23296720909607402  0.9999925240805395  1.0000
  C   C63       1.0  0.3353732068361594  0.3353823686869858  0.5683511561241517  1.0000
  C   C64       1.0  0.23296529755545234  0.6646190111462644  0.9999881111311808  1.0000
  C   C65       1.0  0.23296668276679372  0.9999989472709317  0.6646269277183167  1.0000
  C   C66       1.0  0.7670357344319427  0.4316548505754272  0.7670231184175408  1.0000
  C   C67       1.0  0.6646178927537888  0.9999923993593569  0.23296838092454672  1.0000
  C   C68       1.0  0.33537607478045567  0.568349372473179  0.33537666849041176  1.0000
  C   C69       1.0  1.5865826126549157e-06  0.23296514313481234  0.6646198386893686  1.0000
  C   C70       1.0  0.5683498589549315  0.3353806565357758  0.33538196738742704  1.0000
  C   C71       1.0  2.240808342273042e-06  0.6646182032773779  0.2329627631721821  1.0000
  C   C72       1.0  0.43165318526671836  0.7670279069467371  0.7670343956061743  1.0000
  C   C73       1.0  0.8157135874827118  0.7578512349320476  0.4230302874502384  1.0000
  C   C74       1.0  0.6651670782359956  0.24214483391330804  0.05785254805507391  1.0000
  C   C75       1.0  0.33482207282028753  0.39269684491831924  0.5769837345453226  1.0000
  C   C76       1.0  0.18427978818869653  0.6073020925706769  0.9421214336784941  1.0000
  C   C77       1.0  0.24215182350623352  0.057864869508122564  0.6651805786299858  1.0000
  C   C78       1.0  0.7578536470208022  0.42301948412355034  0.8157030586694703  1.0000
  C   C79       1.0  0.6073029862894541  0.9421262088722812  0.18428491019741958  1.0000
  C   C80       1.0  0.39269356418723333  0.5769818376050538  0.3348308127608989  1.0000
  C   C81       1.0  0.9421372287085742  0.18428047912773562  0.6073050281755171  1.0000
  C   C82       1.0  0.5769800822418175  0.3348333423612714  0.39269984384710444  1.0000
  C   C83       1.0  0.05787081496510625  0.6651691245403056  0.2421433605728397  1.0000
  C   C84       1.0  0.4230217596348211  0.815710592381933  0.7578527165424234  1.0000
  C   C85       1.0  0.057868457061431365  0.24214746649354874  0.6651707410253351  1.0000
  C   C86       1.0  0.4230208852618557  0.7578445116999075  0.8157172951928401  1.0000
  C   C87       1.0  0.9421423162958362  0.6073034255171949  0.1842771602755349  1.0000
  C   C88       1.0  0.5769812854739412  0.39269590835085205  0.3348349205103602  1.0000
  C   C89       1.0  0.18428393406430374  0.9421342000431777  0.6073123791421864  1.0000
  C   C90       1.0  0.33482301135932596  0.5769808885149317  0.3926894100010756  1.0000
  C   C91       1.0  0.6651656740315344  0.05785455932576868  0.2421476850362581  1.0000
  C   C92       1.0  0.8157218585662349  0.42302337682416885  0.7578426822148856  1.0000
  C   C93       1.0  0.757847034879063  0.8157142074784858  0.42302686981940246  1.0000
  C   C94       1.0  0.24215101689459564  0.665172233445098  0.057853076423129084  1.0000
  C   C95       1.0  0.3926897854981987  0.3348359933321134  0.576985048006847  1.0000
  C   C96       1.0  0.6072992814987753  0.18427956631978745  0.9421267222289486  1.0000
  C   C97       1.0  0.8545848900593782  0.7966465034237373  0.40851381324473135  1.0000
  C   C98       1.0  0.6118614218912198  0.20335357973067397  0.05793703890800125  1.0000
  C   C99       1.0  0.3881320196227802  0.4460848934239151  0.5915014881785297  1.0000
  C   C100      1.0  0.1454174138498985  0.5539232483806414  0.9420551231634846  1.0000
  C   C101      1.0  0.2033591806058723  0.05794514243255827  0.6118714144068633  1.0000
  C   C102      1.0  0.7966441360500767  0.40850406061408523  0.8545792443504042  1.0000
  C   C103      1.0  0.5539171804536167  0.9420506925406615  0.1454149022428199  1.0000
  C   C104      1.0  0.4460794341234973  0.5915014649572683  0.38814222749562083  1.0000
  C   C105      1.0  0.9420614427426983  0.14541083717963238  0.5539213343056275  1.0000
  C   C106      1.0  0.5914944435191813  0.3881424680985361  0.44608428295984487  1.0000
  C   C107      1.0  0.05794814028012498  0.6118610158598018  0.20334864461964502  1.0000
  C   C108      1.0  0.4085028589544564  0.8545786194536545  0.7966432240177285  1.0000
  C   C109      1.0  0.057944014113687006  0.20335229590879308  0.6118625072155764  1.0000
  C   C110      1.0  0.40850320307778537  0.7966368861565059  0.8545845904643344  1.0000
  C   C111      1.0  0.9420625316930469  0.5539184417044184  0.14540456324252923  1.0000
  C   C112      1.0  0.591494286150322  0.4460819859333824  0.3881402378575843  1.0000
  C   C113      1.0  0.14541355621000202  0.9420603478150297  0.5539255641070114  1.0000
  C   C114      1.0  0.38813008283558736  0.591497627729538  0.4460789792604061  1.0000
  C   C115      1.0  0.6118558205227841  0.057932826858191795  0.20335509809083166  1.0000
  C   C116      1.0  0.854587618435744  0.4085082747341957  0.7966397465894275  1.0000
  C   C117      1.0  0.7966422637267387  0.8545876249921422  0.40851184938259893  1.0000
  C   C118      1.0  0.2033627666790281  0.6118660715967152  0.05794005552641582  1.0000
  C   C119      1.0  0.44607598482486566  0.38814751293979544  0.5915030794809439  1.0000
  C   C120      1.0  0.553913667765954  0.14540835522707585  0.942052201714361  1.0000
  C   C121      1.0  0.8460221961911782  0.8460234552554197  0.4018843003335775  1.0000
  C   C122      1.0  0.555849100668034  0.153971435635391  0.9999941278658894  1.0000
  C   C123      1.0  0.4441424730181963  0.4441545680030145  0.5981333618828444  1.0000
  C   C124      1.0  0.15398361980712136  0.5558573079025919  0.9999954247374561  1.0000
  C   C125      1.0  0.15397960155830503  2.3775291922176423e-06  0.5558624556850376  1.0000
  C   C126      1.0  0.8460249402367737  0.40187599271971647  0.8460147225135303  1.0000
  C   C127      1.0  0.5558474310790372  0.9999901094457754  0.15397627871316646  1.0000
  C   C128      1.0  0.44414175860105587  0.5981310051149222  0.44414946169712266  1.0000
  C   C129      1.0  3.2927606171506116e-06  0.1539738408870264  0.5558513930253994  1.0000
  C   C130      1.0  0.5981256809052339  0.44415226148665715  0.4441519533763838  1.0000
  C   C131      1.0  7.5050207683851045e-06  0.5558505921694774  0.1539670567207523  1.0000
  C   C132      1.0  0.4018711414686891  0.8460145225697743  0.8460202680951525  1.0000
  C   C133      1.0  0.8895327215126085  0.8895352798438196  0.3884424870238875  1.0000
  C   C134      1.0  0.49889906022715264  0.11046009689669482  0.9999968220454248  1.0000
  C   C135      1.0  0.5010931665724029  0.5011035976432296  0.6115690366534707  1.0000
  C   C136      1.0  0.11047190157520954  0.49890436996357573  0.9999910629156474  1.0000
  C   C137      1.0  0.1104677629918385  2.1616107943629144e-06  0.49891022188696615  1.0000
  C   C138      1.0  0.8895377880104431  0.3884344147317123  0.8895227901858576  1.0000
  C   C139      1.0  0.4988970511857145  0.9999908409880262  0.11046372860520404  1.0000
  C   C140      1.0  0.5010923859559284  0.6115670783812986  0.5010993188084854  1.0000
  C   C141      1.0  2.7518373002996822e-06  0.11046341106787586  0.4989000895792941  1.0000
  C   C142      1.0  0.6115619921763269  0.5011022564346632  0.5011037212624175  1.0000
  C   C143      1.0  4.904335540402456e-06  0.49889959174387144  0.11045249412121196  1.0000
  C   C144      1.0  0.38843340849443553  0.8895257185659275  0.8895344614111167  1.0000
  C   C145      1.0  0.8914799619510064  0.8914812430563116  0.2434589638872567  1.0000
  C   C146      1.0  0.3519743800424848  0.10851778925236032  1.120421600819334e-06  1.0000
  C   C147      1.0  0.6480186186202131  0.6480283452092834  0.7565507004480523  1.0000
  C   C148      1.0  0.10852755231912432  0.3519793691740104  0.9999875053804602  1.0000
  C   C149      1.0  0.10852730066716275  6.236064763132551e-06  0.351985528317769  1.0000
  C   C150      1.0  0.8914842936317625  0.24345253302359282  0.8914642585993421  1.0000
  C   C151      1.0  0.3519721332271287  0.9999881103872211  0.10852274165230838  1.0000
  C   C152      1.0  0.6480161110788385  0.7565462209011072  0.648030667460077  1.0000
  C   C153      1.0  1.9680648861797596e-06  0.10853045558117454  0.3519833762972766  1.0000
  C   C154      1.0  0.7565453215963629  0.6480330859446469  0.6480319791846371  1.0000
  C   C155      1.0  8.023036535551974e-06  0.35197769785909117  0.10851252206182242  1.0000
  C   C156      1.0  0.24345608509096175  0.8914772970693007  0.891485831496162  1.0000
  C   C157      1.0  0.8497239279786437  0.8497288082911395  0.17185887800953747  1.0000
  C   C158      1.0  0.322121065028149  0.15026683191561563  0.999990860203752  1.0000
  C   C159      1.0  0.6778642581795321  0.6778790767821404  0.8281516100053777  1.0000
  C   C160      1.0  0.1502827235018387  0.32213480239259695  0.9999920531252329  1.0000
  C   C161      1.0  0.15028127288712062  4.236331030015311e-06  0.3221393049305448  1.0000
  C   C162      1.0  0.8497291450171716  0.1718519327231008  0.849716148571609  1.0000
  C   C163      1.0  0.3221244158876784  0.9999894677389705  0.15027579855706125  1.0000
  C   C164      1.0  0.6778671291945811  0.82814718573767  0.6778724511592529  1.0000
  C   C165      1.0  4.917606993573643e-06  0.15028497198613164  0.32213909396149626  1.0000
  C   C166      1.0  0.8281470061316656  0.6778786197068173  0.6778805077523347  1.0000
  C   C167      1.0  8.807487795074846e-06  0.32213422179915335  0.1502707228302853  1.0000
  C   C168      1.0  0.1718541024142582  0.8497217565723432  0.8497318603586663  1.0000
  C   C169      1.0  0.8591804287023165  0.8013009592947712  0.13767909806651357  1.0000
  C   C170      1.0  0.3363673615264915  0.19869536686991304  0.05787086323915254  1.0000
  C   C171      1.0  0.6636196259504458  0.7215144876544456  0.862334727022258  1.0000
  C   C172      1.0  0.14082351006550187  0.27849739643245625  0.9421099563345975  1.0000
  C   C173      1.0  0.1987099216528208  0.057886866613984005  0.33638464946776747  1.0000
  C   C174      1.0  0.8012978107124267  0.13767409080771376  0.8591754192491265  1.0000
  C   C175      1.0  0.27848767372854866  0.9421058131462914  0.14081915615511062  1.0000
  C   C176      1.0  0.7215038451242323  0.8623228597671828  0.6636186138404343  1.0000
  C   C177      1.0  0.9421154980335726  0.1408236493968006  0.27849680281204314  1.0000
  C   C178      1.0  0.8623249343653469  0.6636266711816035  0.7215152296473664  1.0000
  C   C179      1.0  0.05789303255620837  0.33638234715144216  0.19870340242194828  1.0000
  C   C180      1.0  0.13767526196268412  0.8591784493438154  0.8013020457746123  1.0000
  C   C181      1.0  0.05789041469443383  0.1987131853537533  0.33638689642993563  1.0000
  C   C182      1.0  0.1376719848551105  0.8012917090492451  0.8591838025090724  1.0000
  C   C183      1.0  0.9421237569975957  0.2784979718284859  0.1408166292793851  1.0000
  C   C184      1.0  0.8623274878611722  0.7215131683139332  0.6636309091478979  1.0000
  C   C185      1.0  0.14081872416892333  0.9421160736736597  0.2785022094805782  1.0000
  C   C186      1.0  0.6636251990096085  0.8623325546940566  0.7215076117594493  1.0000
  C   C187      1.0  0.33637318792857934  0.05787572725692775  0.19870580446077915  1.0000
  C   C188      1.0  0.8591829434551809  0.13767088248266623  0.8012887471704173  1.0000
  C   C189      1.0  0.8012935377385092  0.8591849117213786  0.13767974589082155  1.0000
  C   C190      1.0  0.19871172351017918  0.3363826001616914  0.05788133916055224  1.0000
  C   C191      1.0  0.7215016198070001  0.663627079475354  0.8623294867029472  1.0000
  C   C192      1.0  0.27848652222472486  0.14080985015102246  0.9421030109786984  1.0000
  C   C193      1.0  0.8223473078214311  0.7646088208121001  0.07106061881015076  1.0000
  C   C194      1.0  0.306441831781072  0.2353902122266547  0.057730122991465314  1.0000
  C   C195      1.0  0.6935476646962112  0.7512986864040128  0.9289523235589457  1.0000
  C   C196      1.0  0.17764657696722702  0.24870534808808734  0.9422419068616036  1.0000
  C   C197      1.0  0.23539769585261885  0.0577403541712016  0.306453250234469  1.0000
  C   C198      1.0  0.7646074269210387  0.07105463391692271  0.8223391586885711  1.0000
  C   C199      1.0  0.24870210669821788  0.9422466778514574  0.1776514219934811  1.0000
  C   C200      1.0  0.7512918851325806  0.9289420624672147  0.6935447473925009  1.0000
  C   C201      1.0  0.9422601248839798  0.17765356210806965  0.24870925198295168  1.0000
  C   C202      1.0  0.9289448624563759  0.6935514621974547  0.7512987113729892  1.0000
  C   C203      1.0  0.05774899452260477  0.3064521888203089  0.23539496433970444  1.0000
  C   C204      1.0  0.07105368859097871  0.8223456408384492  0.7646073967276693  1.0000
  C   C205      1.0  0.05774793794938659  0.2354001288362397  0.3064562908892939  1.0000
  C   C206      1.0  0.07105322841434251  0.7646000854570757  0.8223510359365208  1.0000
  C   C207      1.0  0.9422629021835788  0.2487102254731256  0.1776498392525526  1.0000
  C   C208      1.0  0.9289462329992373  0.7512950452787805  0.6935549572734915  1.0000
  C   C209      1.0  0.17764715151946583  0.9422524250857975  0.2487110032242726  1.0000
  C   C210      1.0  0.6935529306047032  0.9289516394789886  0.751292997541029  1.0000
  C   C211      1.0  0.3064448404259466  0.05773304212852535  0.23539480637248997  1.0000
  C   C212      1.0  0.8223536179518262  0.07105517603760363  0.7645970898820522  1.0000
  C   C213      1.0  0.7646007690753223  0.822350623963935  0.07105953586681592  1.0000
  C   C214      1.0  0.23539793547116963  0.3064493737117786  0.05773114340603058  1.0000
  C   C215      1.0  0.7512893434972907  0.6935539451062738  0.9289482592394123  1.0000
  C   C216      1.0  0.24870252562999448  0.17764622781059816  0.9422452689051113  1.0000
  C   C217      1.0  0.7747294568261085  0.7747338092887974  0.03564250797899135  1.0000
  C   C218      1.0  0.260899984873994  0.2252642976091578  0.9999847020454097  1.0000
  C   C219      1.0  0.7390925025198527  0.7390973291749249  0.9643690545942365  1.0000
  C   C220      1.0  0.22526652919450624  0.26090337540362873  0.9999854553165406  1.0000
  C   C221      1.0  0.22526626642657985  0.9999943047091124  0.26090802402001867  1.0000
  C   C222      1.0  0.7747354879088133  0.03563807850937915  0.7747225030707483  1.0000
  C   C223      1.0  0.2609002972255111  0.9999884428456696  0.22526878632445616  1.0000
  C   C224      1.0  0.7390968662284364  0.9643647851310391  0.7390879086684025  1.0000
  C   C225      1.0  3.1122512993309276e-06  0.2252713958122357  0.2609094290983265  1.0000
  C   C226      1.0  0.9643620988253331  0.7390939385974492  0.7390978571978053  1.0000
  C   C227      1.0  4.82317845749532e-06  0.2609091106549073  0.22527001734486873  1.0000
  C   C228      1.0  0.03563640782786593  0.7747280854962497  0.7747338300631413  1.0000
  N   N1        1.0  0.6662768964284494  0.6662825312338044  0.5037351224760157  1.0000
  N   N2        1.0  0.8374544667253045  0.3337173588730236  0.9999950457556535  1.0000
  N   N3        1.0  0.16254561081870375  0.16254779799989894  0.49626994153671694  1.0000
  N   N4        1.0  0.3337202662028316  0.837450281203324  0.9999972225755441  1.0000
  N   N5        1.0  0.3337199272147655  0.9999963003965318  0.837452782981707  1.0000
  N   N6        1.0  0.6662803746351782  0.5037348468055141  0.6662827955135242  1.0000
  N   N7        1.0  0.8374554927921664  1.9109849987628637e-06  0.3337235213674603  1.0000
  N   N8        1.0  0.1625492859574322  0.4962676863872204  0.1625418016545624  1.0000
  N   N9        1.0  2.644055926038717e-07  0.33372422336152147  0.8374460094741282  1.0000
  N   N10       1.0  0.4962661737873758  0.1625464395023641  0.16255022846618772  1.0000
  N   N11       1.0  1.799889190562026e-06  0.837450592984986  0.33372653992974227  1.0000
  N   N12       1.0  0.5037291428821289  0.6662789398502937  0.6662797453289855  1.0000
  O   O1        1.0  1.0277752977171307e-06  5.84781593448305e-06  0.3937160618443727  1.0000
  O   O2        1.0  0.3937203856175415  6.750311278841509e-06  7.0625312532198376e-06  1.0000
  O   O3        1.0  0.6062818880236804  0.6062861781877161  0.6062891977733075  1.0000
  O   O4        1.0  1.735858248768813e-07  0.3937191059574304  1.087340191223601e-05  1.0000
  O   O5        1.0  0.932916685664402  0.8781273540075247  0.3832251427383043  1.0000
  O   O6        1.0  0.5050938078660323  0.12187211690181253  0.05479188992931234  1.0000
  O   O7        1.0  0.49490082678556746  0.5497020519658874  0.616780183037406  1.0000
  O   O8        1.0  0.06708511430072409  0.4503021064113211  0.9451941479737868  1.0000
  O   O9        1.0  0.12187485716772536  0.054795689136369743  0.5051032545776266  1.0000
  O   O10       1.0  0.8781332618437148  0.3832199173327809  0.9329053186723827  1.0000
  O   O11       1.0  0.4502979570846152  0.945199533709662  0.06707394365432172  1.0000
  O   O12       1.0  0.5496903975696978  0.6167793997238674  0.494908482374008  1.0000
  O   O13       1.0  0.9452079257911092  0.06707991915102696  0.4503000233484826  1.0000
  O   O14       1.0  0.6167723592762541  0.49490825152891915  0.5497001150103529  1.0000
  O   O15       1.0  0.054799284623889805  0.5050930204795422  0.12185799546856668  1.0000
  O   O16       1.0  0.38321947571785825  0.9329120769334834  0.8781268582010143  1.0000
  O   O17       1.0  0.05479374816827935  0.12186964091569749  0.505092645226007  1.0000
  O   O18       1.0  0.38322294701057996  0.8781237448484303  0.9329211122973362  1.0000
  O   O19       1.0  0.9452120247862936  0.4503009003688165  0.06706803252679094  1.0000
  O   O20       1.0  0.6167742383322403  0.5497009730517773  0.4949090664915161  1.0000
  O   O21       1.0  0.06708198659803333  0.9452119817407549  0.45031113129928  1.0000
  O   O22       1.0  0.4948986815086866  0.6167800369736864  0.5496996622167457  1.0000
  O   O23       1.0  0.5050919900040397  0.05478488388267515  0.12187620708620978  1.0000
  O   O24       1.0  0.9329267095302852  0.38322101170215456  0.878114206144268  1.0000
  O   O25       1.0  0.8781279541280611  0.9329218182391372  0.383230124206122  1.0000
  O   O26       1.0  0.12187357174431669  0.5050933380228741  0.0547776467284677  1.0000
  O   O27       1.0  0.5496933998256565  0.49490950743740564  0.6167847393792485  1.0000
  O   O28       1.0  0.45030095148546667  0.06707120148832488  0.9452071748830165  1.0000
  O   O29       1.0  0.9344815656502446  0.8798696451160525  0.27055647002639927  1.0000
  O   O30       1.0  0.3906771988202138  0.12013153735514953  0.05461251201689525  1.0000
  O   O31       1.0  0.6093131672012715  0.6639355993899583  0.7294547689401084  1.0000
  O   O32       1.0  0.06552684869213703  0.33607303670685673  0.9453743766556498  1.0000
  O   O33       1.0  0.12013909635096809  0.0546186295590161  0.39068878256656353  1.0000
  O   O34       1.0  0.8798741079152347  0.2705454540754246  0.9344668012291635  1.0000
  O   O35       1.0  0.3360744499414991  0.945380693960729  0.06552584613965011  1.0000
  O   O36       1.0  0.6639215349373087  0.7294471035269793  0.609318342357902  1.0000
  O   O37       1.0  0.9453879496408675  0.06553047933678596  0.336076533121954  1.0000
  O   O38       1.0  0.7294512825408289  0.609324876772952  0.6639391283799938  1.0000
  O   O39       1.0  0.054622371207734895  0.3906852990261314  0.12012356161174866  1.0000
  O   O40       1.0  0.270551767237002  0.934477507855675  0.8798724522175405  1.0000
  O   O41       1.0  0.05461525563261921  0.12014137223261659  0.39068744294755225  1.0000
  O   O42       1.0  0.2705537016919378  0.8798682860378618  0.9344879560829469  1.0000
  O   O43       1.0  0.9453931310003937  0.33607103059085136  0.0655120772940593  1.0000
  O   O44       1.0  0.7294510049153188  0.6639371967443992  0.6093247537731088  1.0000
  O   O45       1.0  0.06552455381820727  0.9453924548908148  0.33608220604538275  1.0000
  O   O46       1.0  0.6093127379257766  0.7294524147007595  0.663933701236225  1.0000
  O   O47       1.0  0.3906775447589154  0.054606951602501355  0.12013672612847157  1.0000
  O   O48       1.0  0.9344824201238567  0.27054686476148493  0.8798487358117271  1.0000
  O   O49       1.0  0.8798681863122083  0.9344824911393915  0.2705512450939694  1.0000
  O   O50       1.0  0.12013723023934385  0.39068571304827066  0.05459898333835163  1.0000
  O   O51       1.0  0.6639229144487897  0.6093196017376242  0.7294561859454163  1.0000
  O   O52       1.0  0.33607254160238387  0.06551641777932814  0.9453858011922164  1.0000
