data_image0
_chemical_formula_structural       Zn16H192C216O52
_chemical_formula_sum              "Zn16 H192 C216 O52"
_cell_length_a       22.75285103382201
_cell_length_b       22.752871422321647
_cell_length_c       25.733768403156812
_cell_angle_alpha    63.75046586111491
_cell_angle_beta     63.75042801737636
_cell_angle_gamma    59.98467866791105

_space_group_name_H-M_alt    "P 1"
_space_group_IT_number       1

loop_
  _space_group_symop_operation_xyz
  'x, y, z'

loop_
  _atom_site_type_symbol
  _atom_site_label
  _atom_site_symmetry_multiplicity
  _atom_site_fract_x
  _atom_site_fract_y
  _atom_site_fract_z
  _atom_site_occupancy
  Zn  Zn1       1.0  0.5432956296689185  0.5432366486108651  0.37011870630458055  1.0000
  Zn  Zn2       1.0  0.9567621183553642  0.9567046254262624  0.12988330033549986  1.0000
  Zn  Zn3       1.0  0.45670630211500207  0.45676191845689834  0.6298812731446402  1.0000
  Zn  Zn4       1.0  0.0432392854456722  0.04329267261381631  0.8701189371659551  1.0000
  Zn  Zn5       1.0  0.027737841849969403  0.1762061147025307  0.7560275295863761  1.0000
  Zn  Zn6       1.0  0.1761852878360486  0.03988958785767241  0.7561300579760509  1.0000
  Zn  Zn7       1.0  0.03994288510543951  0.027742331354637897  0.7560981121202843  1.0000
  Zn  Zn8       1.0  0.4722559633322092  0.46005916681009057  0.7438996997920382  1.0000
  Zn  Zn9       1.0  0.3237948233758203  0.4722614813834909  0.7439695523889752  1.0000
  Zn  Zn10      1.0  0.4601095505585207  0.32381818782421606  0.7438664667429787  1.0000
  Zn  Zn11      1.0  0.9722651472762467  0.8237925403579708  0.24396966980464918  1.0000
  Zn  Zn12      1.0  0.8238129385237372  0.9601079310757898  0.24387178287299335  1.0000
  Zn  Zn13      1.0  0.9600590468586178  0.9722557456053952  0.24390205917489274  1.0000
  Zn  Zn14      1.0  0.5277449076494136  0.5399422505312473  0.2560980245573317  1.0000
  Zn  Zn15      1.0  0.6762049907461288  0.5277378872961905  0.25603133099420466  1.0000
  Zn  Zn16      1.0  0.5398913191043633  0.6761861699254867  0.25612971812241603  1.0000
  H   H1        1.0  0.9257548061246011  0.11391870550733081  0.6331299041693156  1.0000
  H   H2        1.0  0.11397918069269512  0.32703414204173253  0.6331411626967591  1.0000
  H   H3        1.0  0.3270770097566782  0.9258288061218923  0.6331021313910412  1.0000
  H   H4        1.0  0.5741692887909693  0.17292053956196446  0.866900145422768  1.0000
  H   H5        1.0  0.3860819629280243  0.5742464769401965  0.8668690902487481  1.0000
  H   H6        1.0  0.17296501943750542  0.38602000149091253  0.866859395923569  1.0000
  H   H7        1.0  0.0742455365138639  0.8860824230217758  0.36686969454036966  1.0000
  H   H8        1.0  0.8860211620103371  0.6729655156881836  0.3668582347343374  1.0000
  H   H9        1.0  0.6729217470297612  0.07416851342011206  0.3669011342094848  1.0000
  H   H10       1.0  0.4258289378645161  0.8270774699552422  0.1331022803967767  1.0000
  H   H11       1.0  0.6139167910475933  0.42575525238134293  0.13313050669700743  1.0000
  H   H12       1.0  0.8270337354965774  0.6139797676377159  0.13314135681424938  1.0000
  H   H13       1.0  0.9046307158282049  0.30925904321792075  0.6390475102817349  1.0000
  H   H14       1.0  0.30935680815811395  0.14687982120837254  0.6391285065034537  1.0000
  H   H15       1.0  0.1469145540327546  0.904706656685434  0.6391191873541472  1.0000
  H   H16       1.0  0.5952903615426238  0.35308402086231905  0.8608819574029166  1.0000
  H   H17       1.0  0.19074163928016932  0.5953668214675503  0.8609541298480465  1.0000
  H   H18       1.0  0.3531212579651282  0.19064355627014612  0.8608711944547167  1.0000
  H   H19       1.0  0.0953669805094179  0.6907421075271358  0.3609542817517095  1.0000
  H   H20       1.0  0.6906435341268562  0.8531203263912632  0.36087031067345493  1.0000
  H   H21       1.0  0.8530842016218685  0.09529115201228675  0.36088233276750253  1.0000
  H   H22       1.0  0.4047078633828676  0.6469154577880406  0.1391179508376012  1.0000
  H   H23       1.0  0.8092571162520982  0.4046319676836347  0.13904739498991606  1.0000
  H   H24       1.0  0.6468796139749529  0.8093559008782879  0.13912768568672348  1.0000
  H   H25       1.0  0.826955765382813  0.39804929514117776  0.3558569917336312  1.0000
  H   H26       1.0  0.39807171986746687  0.41905264063132125  0.3559454392871898  1.0000
  H   H27       1.0  0.419077894694972  0.8268779870392675  0.35592316967962045  1.0000
  H   H28       1.0  0.6731248626703064  0.08092077801807562  0.14407679032256485  1.0000
  H   H29       1.0  0.10195136507172721  0.6730452730647373  0.14414291333813617  1.0000
  H   H30       1.0  0.0809495660134374  0.10192663200702873  0.14405501410350743  1.0000
  H   H31       1.0  0.17304351854361497  0.6019522343128971  0.644143253147149  1.0000
  H   H32       1.0  0.6019259751582098  0.5809494893771756  0.6440544154214223  1.0000
  H   H33       1.0  0.5809213883885677  0.17312648329918542  0.6440763125336345  1.0000
  H   H34       1.0  0.32687812812135064  0.9190778787084639  0.8559231279260686  1.0000
  H   H35       1.0  0.8980489775667381  0.32695585546437667  0.8558566853715488  1.0000
  H   H36       1.0  0.9190523658282643  0.8980724254064686  0.8559451619079893  1.0000
  H   H37       1.0  0.636000168499379  0.397366284247184  0.5004942465078343  1.0000
  H   H38       1.0  0.3972837385686887  0.4661350185327252  0.5005313512077832  1.0000
  H   H39       1.0  0.46613677805348175  0.6359903982230577  0.5006038357647353  1.0000
  H   H40       1.0  0.8640123587825742  0.033866024813889256  0.9993921897284394  1.0000
  H   H41       1.0  0.1026336788595472  0.8640008880928182  0.9995039964281812  1.0000
  H   H42       1.0  0.0338652134810857  0.10271424360267643  0.9994711886517461  1.0000
  H   H43       1.0  0.3640012327933277  0.6026339530112282  0.4995045094684868  1.0000
  H   H44       1.0  0.6027150163653944  0.5338647505959032  0.49946940153002817  1.0000
  H   H45       1.0  0.533866210287627  0.36401168806755635  0.49939279752103966  1.0000
  H   H46       1.0  0.13598957067315354  0.9661349913644842  0.0006045000416107705  1.0000
  H   H47       1.0  0.8973671927202602  0.13599954927106964  0.0004945000213397978  1.0000
  H   H48       1.0  0.9661346015993217  0.8972831648840934  0.0005308505234964447  1.0000
  H   H49       1.0  0.9364498019729481  0.34554470653245783  0.4413177515399838  1.0000
  H   H50       1.0  0.34559934211937826  0.2765555457682326  0.44147684474054927  1.0000
  H   H51       1.0  0.27659263309376303  0.936445053744052  0.44136740403626357  1.0000
  H   H52       1.0  0.5635552696814514  0.22340692964858308  0.058633218425406045  1.0000
  H   H53       1.0  0.15445756352253429  0.5635503261238172  0.05868225425027872  1.0000
  H   H54       1.0  0.22344690604712977  0.15439939730519117  0.05852296453186772  1.0000
  H   H55       1.0  0.06354895188032121  0.6544580032425459  0.5586818501220775  1.0000
  H   H56       1.0  0.6543994129880559  0.7234456943975972  0.5585244976840825  1.0000
  H   H57       1.0  0.7234082402092668  0.06355587563160738  0.5586340078331344  1.0000
  H   H58       1.0  0.4364456029146098  0.7765920378681272  0.9413666303784537  1.0000
  H   H59       1.0  0.8455438382460088  0.4364499116106091  0.9413172785425059  1.0000
  H   H60       1.0  0.7765544958437688  0.8455998599757706  0.941476563544597  1.0000
  H   H61       1.0  0.9388233442863695  0.3380777565796721  0.3743903149111602  1.0000
  H   H62       1.0  0.3381420783487314  0.3485625855298979  0.3745139444516424  1.0000
  H   H63       1.0  0.34862224546117915  0.9387857612135448  0.3744204305624378  1.0000
  H   H64       1.0  0.5612157233465496  0.15137632060748987  0.12558089867945904  1.0000
  H   H65       1.0  0.16192285529727712  0.5611782601421852  0.12560937264350963  1.0000
  H   H66       1.0  0.15143935093318822  0.1618588057998808  0.12548601083237534  1.0000
  H   H67       1.0  0.06117699829430729  0.6619228816037078  0.6256090872362562  1.0000
  H   H68       1.0  0.6618598530749153  0.6514369617533192  0.6254856513056666  1.0000
  H   H69       1.0  0.651377568293718  0.061216548826521965  0.6255804669696801  1.0000
  H   H70       1.0  0.4387856796761583  0.8486224475177625  0.8744203748758892  1.0000
  H   H71       1.0  0.8380780166360182  0.4388231581511733  0.8743899053387876  1.0000
  H   H72       1.0  0.8485620504750885  0.8381424121500062  0.8745131382684901  1.0000
  H   H73       1.0  0.9478944993461271  0.2637865290629336  0.4398312635342306  1.0000
  H   H74       1.0  0.2638348293219153  0.3483653042088902  0.43995831674438796  1.0000
  H   H75       1.0  0.34842180814399637  0.9478664025640317  0.4398261729492176  1.0000
  H   H76       1.0  0.5521344613076238  0.1515769371046218  0.06017494138443173  1.0000
  H   H77       1.0  0.23621540571320315  0.5521055096425229  0.060170077931978476  1.0000
  H   H78       1.0  0.1516365258447152  0.23616461859558768  0.060040694619260586  1.0000
  H   H79       1.0  0.0521037259838408  0.7362163820075694  0.5601700206421824  1.0000
  H   H80       1.0  0.736165513200973  0.6516348436287488  0.5600408888407599  1.0000
  H   H81       1.0  0.6515785350280866  0.052135216786822994  0.5601743991391998  1.0000
  H   H82       1.0  0.44786747137019495  0.8484211405694287  0.9398263951354406  1.0000
  H   H83       1.0  0.7637849375234468  0.44789463890914066  0.9398302928778502  1.0000
  H   H84       1.0  0.8483648751522849  0.7638351280790872  0.93995747638656  1.0000
  H   H85       1.0  0.7054400925796928  0.264890256636761  0.612401097400017  1.0000
  H   H86       1.0  0.2648774716930192  0.4172370848987371  0.6124971964921571  1.0000
  H   H87       1.0  0.41729769505875686  0.7053914899945755  0.6124938278980067  1.0000
  H   H88       1.0  0.7946101362886681  0.08270431933448208  0.8875049022833817  1.0000
  H   H89       1.0  0.235109109951992  0.7945605971328575  0.8875971167778827  1.0000
  H   H90       1.0  0.08276213730806603  0.2351214307216268  0.8875057742342916  1.0000
  H   H91       1.0  0.2945607787044153  0.7351096901433893  0.38759681407900365  1.0000
  H   H92       1.0  0.73512234326504  0.5827613040414907  0.38750484739939844  1.0000
  H   H93       1.0  0.582705295012353  0.29460912716287885  0.3875053229667883  1.0000
  H   H94       1.0  0.20539126506182012  0.9172964082696637  0.11249405025520784  1.0000
  H   H95       1.0  0.7648896445640361  0.2054396618654978  0.1124030557057408  1.0000
  H   H96       1.0  0.9172371484707186  0.7648776491458238  0.11249698350920315  1.0000
  H   H97       1.0  0.6365653424731123  0.35032537783163065  0.6024606177394386  1.0000
  H   H98       1.0  0.35033225007742885  0.4105796509502755  0.6025057392983796  1.0000
  H   H99       1.0  0.41062354795825945  0.6365891045599598  0.6025156640005918  1.0000
  H   H100      1.0  0.8634122479416602  0.08937862057771195  0.8974831076717821  1.0000
  H   H101      1.0  0.14967335909040708  0.86343502353143  0.8975379830672168  1.0000
  H   H102      1.0  0.08941839941432761  0.1496675761656689  0.8974957662243239  1.0000
  H   H103      1.0  0.3634355292868392  0.6496745694245265  0.39753807055604523  1.0000
  H   H104      1.0  0.6496686230590356  0.5894178462432579  0.3974946850433552  1.0000
  H   H105      1.0  0.5893789121042587  0.3634112221192255  0.39748264236690284  1.0000
  H   H106      1.0  0.1365896828838018  0.9106219066829625  0.10251571598538316  1.0000
  H   H107      1.0  0.8503253951299145  0.13656474488318798  0.10246160444590655  1.0000
  H   H108      1.0  0.9105803554619671  0.8503317026172256  0.10250478995121869  1.0000
  H   H109      1.0  0.7108614424713124  0.3346039429752709  0.6209496685600298  1.0000
  H   H110      1.0  0.3346004885246572  0.3335187087646715  0.6210054255330704  1.0000
  H   H111      1.0  0.3335736933770903  0.7109470320755733  0.6209807567842132  1.0000
  H   H112      1.0  0.7890537872494789  0.16642827160868734  0.8790179278370047  1.0000
  H   H113      1.0  0.16539480776292953  0.7891388549694017  0.8790493345171836  1.0000
  H   H114      1.0  0.1664800237816522  0.16539883043441259  0.8789952290255555  1.0000
  H   H115      1.0  0.2891394296488983  0.6653950240654327  0.37904940342737337  1.0000
  H   H116      1.0  0.6654003841937524  0.6664792782985745  0.37899441855447674  1.0000
  H   H117      1.0  0.666428766923346  0.2890532948416224  0.37901793799151307  1.0000
  H   H118      1.0  0.21094761428113884  0.8335719658877355  0.12098121654754111  1.0000
  H   H119      1.0  0.8346044762280729  0.21086120368547512  0.12095070908500812  1.0000
  H   H120      1.0  0.8335192600937803  0.8346002475289965  0.12100442145209912  1.0000
  H   H121      1.0  0.8007090501263647  0.18700639465941296  0.5536869067791627  1.0000
  H   H122      1.0  0.1870251980470741  0.45849220397845175  0.5537476604497299  1.0000
  H   H123      1.0  0.4585209311766647  0.8007461044335856  0.55369433288476  1.0000
  H   H124      1.0  0.69925477815071  0.04147890110728273  0.9463074906260187  1.0000
  H   H125      1.0  0.312995797555736  0.6992908451080951  0.9463120514885259  1.0000
  H   H126      1.0  0.0415072128153042  0.3129738459652813  0.9462532459310038  1.0000
  H   H127      1.0  0.1992912937662652  0.8129932642605271  0.44631443269308585  1.0000
  H   H128      1.0  0.8129756748446868  0.5415072541220031  0.4462527733246301  1.0000
  H   H129      1.0  0.5414794134875011  0.19925404554610537  0.44630836837445287  1.0000
  H   H130      1.0  0.3007466249875606  0.9585208477094442  0.053694176053873804  1.0000
  H   H131      1.0  0.6870050746800445  0.30070910262407596  0.05368741362341465  1.0000
  H   H132      1.0  0.9584915418162865  0.6870273937245415  0.05374731967716437  1.0000
  H   H133      1.0  0.8781945342116803  0.11204026938782614  0.5685235522187282  1.0000
  H   H134      1.0  0.11206004148231591  0.44117970506341214  0.5685673588783472  1.0000
  H   H135      1.0  0.4411716922644828  0.878235660509063  0.5684941984365466  1.0000
  H   H136      1.0  0.6217676734318687  0.05882541100441333  0.931505410409876  1.0000
  H   H137      1.0  0.3879608751871046  0.6218042532806579  0.9314774026921666  1.0000
  H   H138      1.0  0.05882055052976652  0.3879378044422666  0.9314340817584608  1.0000
  H   H139      1.0  0.1218052797879139  0.8879600797453127  0.4314773358807641  1.0000
  H   H140      1.0  0.8879392434603659  0.5588203545434852  0.4314342383567648  1.0000
  H   H141      1.0  0.5588265328921338  0.12176577952423887  0.43150649605305347  1.0000
  H   H142      1.0  0.37823637559596796  0.9411728443211589  0.06849308485120523  1.0000
  H   H143      1.0  0.6120384086237608  0.37819629548194217  0.06852244906406922  1.0000
  H   H144      1.0  0.9411803224197827  0.6120621440039217  0.06856654857816835  1.0000
  H   H145      1.0  0.8827836104410595  0.179121103695316  0.4981033870934937  1.0000
  H   H146      1.0  0.1791300094411525  0.43995627408450144  0.4981503419975226  1.0000
  H   H147      1.0  0.4399344204159518  0.8828059281733334  0.4980907271876943  1.0000
  H   H148      1.0  0.6171931950625478  0.060065007245398976  0.0019092336457901774  1.0000
  H   H149      1.0  0.3208784482886813  0.6172178210907192  0.0018967743229083422  1.0000
  H   H150      1.0  0.0600441389809703  0.3208678007451057  0.001850657924983109  1.0000
  H   H151      1.0  0.1172162035007531  0.8208787550920895  0.5018973044437228  1.0000
  H   H152      1.0  0.8208687459687667  0.5600434955201408  0.5018511875567525  1.0000
  H   H153      1.0  0.5600648645912899  0.11719266063437324  0.5019106687688362  1.0000
  H   H154      1.0  0.3828066178698037  0.9399343602442513  0.9980897076962377  1.0000
  H   H155      1.0  0.6791208351041292  0.38278321754160777  0.9981024971791397  1.0000
  H   H156      1.0  0.9399567338530019  0.6791311670096151  0.9981495792871015  1.0000
  H   H157      1.0  0.8554477730939213  0.41845409362671415  0.5056592378215541  1.0000
  H   H158      1.0  0.4185243288475888  0.22042855788225066  0.5057270448615441  1.0000
  H   H159      1.0  0.22045200325850797  0.8554591340593378  0.5056728639749791  1.0000
  H   H160      1.0  0.6445386821580004  0.2795490107447449  0.9943277798001943  1.0000
  H   H161      1.0  0.0815457234830959  0.6445522535387483  0.9943413914643385  1.0000
  H   H162      1.0  0.2795733037420902  0.08147459951681671  0.9942717431833327  1.0000
  H   H163      1.0  0.1445509817178134  0.5815466559553786  0.49434151963257017  1.0000
  H   H164      1.0  0.5814749544874332  0.7795719904043426  0.4942720300782353  1.0000
  H   H165      1.0  0.7795483406986891  0.14453905406140435  0.4943282742186878  1.0000
  H   H166      1.0  0.35546113029172244  0.7204523174138302  0.005670782566234296  1.0000
  H   H167      1.0  0.918453031386413  0.3554489863890781  0.0056595625520615075  1.0000
  H   H168      1.0  0.720427038607454  0.9185240772836211  0.0057268727149945705  1.0000
  H   H169      1.0  0.8459945386234154  0.41983239262728494  0.577533685372728  1.0000
  H   H170      1.0  0.4199585804971591  0.15654759351683376  0.5775857628882191  1.0000
  H   H171      1.0  0.15655561139208632  0.8460496681519913  0.577514325342996  1.0000
  H   H172      1.0  0.6539475912683557  0.34344412071072145  0.922486654533557  1.0000
  H   H173      1.0  0.0801676608592174  0.6540044790893519  0.9224668587651903  1.0000
  H   H174      1.0  0.34345200670880877  0.08004110775294038  0.9224124417038054  1.0000
  H   H175      1.0  0.15400421618831933  0.5801683569548077  0.4224670720813959  1.0000
  H   H176      1.0  0.5800407020085387  0.8434519733642817  0.42241175370232736  1.0000
  H   H177      1.0  0.8434442029745598  0.15394773962076158  0.4224865486075586  1.0000
  H   H178      1.0  0.34605169164861843  0.6565569174455991  0.07751184015203447  1.0000
  H   H179      1.0  0.9198316240256759  0.34599509017181185  0.07753454190765298  1.0000
  H   H180      1.0  0.6565472762727326  0.9199584596041751  0.07758585170319773  1.0000
  H   H181      1.0  0.7744581899416617  0.42417715416070223  0.5624775283817626  1.0000
  H   H182      1.0  0.4241285033217608  0.23887655692857387  0.5625866053271478  1.0000
  H   H183      1.0  0.23887075208542538  0.7744922549483705  0.562529574157672  1.0000
  H   H184      1.0  0.7255049761830747  0.2611291902969201  0.9374717097812422  1.0000
  H   H185      1.0  0.0758240252357112  0.7255405397997381  0.9375219169898728  1.0000
  H   H186      1.0  0.2611221906545893  0.07587185802182017  0.9374132306907439  1.0000
  H   H187      1.0  0.22554056421409294  0.5758240850531068  0.43752226040994907  1.0000
  H   H188      1.0  0.5758713099708643  0.7611218303456226  0.4374127197067991  1.0000
  H   H189      1.0  0.7611301213467384  0.22550573282890007  0.4374714351545634  1.0000
  H   H190      1.0  0.2744948368648465  0.7388711578841979  0.06252762468533035  1.0000
  H   H191      1.0  0.9241752585751541  0.27446000896286915  0.06247793476636336  1.0000
  H   H192      1.0  0.738876563327814  0.9241279101547879  0.0625859684141472  1.0000
  C   C1        1.0  0.8462971320948541  0.282839654179  0.5528071617593325  1.0000
  C   C2        1.0  0.2828681810259894  0.317956554158073  0.5528744987314623  1.0000
  C   C3        1.0  0.31798199609754363  0.8463373520212728  0.5528348460368234  1.0000
  C   C4        1.0  0.6536592597616037  0.18201727766027892  0.9471665530257878  1.0000
  C   C5        1.0  0.2171628265120944  0.6537000281411881  0.9471923702561681  1.0000
  C   C6        1.0  0.1820441017595229  0.21713036462255544  0.9471245428210792  1.0000
  C   C7        1.0  0.1537026806505821  0.7171621645633126  0.4471919855775964  1.0000
  C   C8        1.0  0.7171311021288959  0.6820444842362505  0.44712438436235385  1.0000
  C   C9        1.0  0.6820188781707301  0.1536596560165506  0.4471673237837877  1.0000
  C   C10       1.0  0.3463416127766621  0.8179811995106976  0.052833099215796354  1.0000
  C   C11       1.0  0.7828375159530198  0.3462996293507248  0.05280663876670371  1.0000
  C   C12       1.0  0.8179557113529584  0.7828685127593716  0.05287459036691192  1.0000
  C   C13       1.0  0.9186194720894677  0.20780836383270435  0.6407040517914735  1.0000
  C   C14       1.0  0.20787542731299172  0.23269431568476057  0.6407253505372237  1.0000
  C   C15       1.0  0.23273439934505552  0.9186951970571827  0.6407096083577384  1.0000
  C   C16       1.0  0.5812990909774101  0.2672654588876073  0.8592920967657631  1.0000
  C   C17       1.0  0.292192626648621  0.5813797753791621  0.8592963995194224  1.0000
  C   C18       1.0  0.26730625266888103  0.2921245815591931  0.8592762602054049  1.0000
  C   C19       1.0  0.08137663540517791  0.7921938778125152  0.359297546632085  1.0000
  C   C20       1.0  0.7921238573985505  0.7673037825392015  0.3592754604488063  1.0000
  C   C21       1.0  0.7672659452749003  0.08130054028691094  0.3592921006574981  1.0000
  C   C22       1.0  0.41869807481799626  0.7327349105574403  0.140707877391655  1.0000
  C   C23       1.0  0.7078055974917562  0.4186231345013169  0.14070294261583866  1.0000
  C   C24       1.0  0.7326940894359596  0.7078760561481733  0.14072236512554767  1.0000
  C   C25       1.0  0.8056632172849731  0.323049370413621  0.5075551142333834  1.0000
  C   C26       1.0  0.3230618438645508  0.3636486769448626  0.5076441597498301  1.0000
  C   C27       1.0  0.3637123156299467  0.8056704754459079  0.507599965400935  1.0000
  C   C28       1.0  0.694330406239409  0.13628605099076926  0.9924004980135305  1.0000
  C   C29       1.0  0.1769512658801702  0.6943382149345113  0.9924450285369912  1.0000
  C   C30       1.0  0.1363505858870653  0.1769378015603565  0.9923569401040524  1.0000
  C   C31       1.0  0.1943376552465139  0.6769510679022943  0.49244493584905763  1.0000
  C   C32       1.0  0.6769384997323655  0.6363504913913409  0.492356594751918  1.0000
  C   C33       1.0  0.6362880281981091  0.19433065427323037  0.4924015753499018  1.0000
  C   C34       1.0  0.3056709955359196  0.8637122255987255  0.007598636938389751  1.0000
  C   C35       1.0  0.8230485472833138  0.30566311393807416  0.007554699054125493  1.0000
  C   C36       1.0  0.8636508163063181  0.8230599851594183  0.007642775102062971  1.0000
  C   C37       1.0  0.8705866838911547  0.20827599402996114  0.5728405214482066  1.0000
  C   C38       1.0  0.2083009728072724  0.34818424942402276  0.572865435578464  1.0000
  C   C39       1.0  0.3482007293632138  0.8706673302025935  0.5728296603081089  1.0000
  C   C40       1.0  0.6293306925170298  0.1517999354900398  0.9271714182153871  1.0000
  C   C41       1.0  0.2917250149092895  0.629411518713589  0.9271607245597053  1.0000
  C   C42       1.0  0.1518159154292391  0.2916972366901973  0.9271339389316963  1.0000
  C   C43       1.0  0.129412071093931  0.7917262265893328  0.42716082569273073  1.0000
  C   C44       1.0  0.7916988406009153  0.6518151185416344  0.42713428258002745  1.0000
  C   C45       1.0  0.6518001443068685  0.12933065781267314  0.42717173741235104  1.0000
  C   C46       1.0  0.3706707096117867  0.8481993220289255  0.07282849826930972  1.0000
  C   C47       1.0  0.7082742686058694  0.37058853946527415  0.07283854222603034  1.0000
  C   C48       1.0  0.8481833684461861  0.7083018412732117  0.0728657115459513  1.0000
  C   C49       1.0  0.906596051320591  0.1715234087100371  0.6167967563711442  1.0000
  C   C50       1.0  0.17158626657887052  0.304912180994805  0.6167989043034365  1.0000
  C   C51       1.0  0.3049409898285163  0.9067056246426122  0.6167742444132428  1.0000
  C   C52       1.0  0.5932919074627492  0.19505735727795337  0.8832279406467547  1.0000
  C   C53       1.0  0.32847842845968245  0.5934028395232007  0.8832038895430186  1.0000
  C   C54       1.0  0.1950875499009186  0.32841409781376285  0.8832013501345412  1.0000
  C   C55       1.0  0.093401114943866  0.8284789223559558  0.3832043924435878  1.0000
  C   C56       1.0  0.8284135473051535  0.6950871874468731  0.3832015906715115  1.0000
  C   C57       1.0  0.69505776648208  0.09329169442338522  0.3832282443708265  1.0000
  C   C58       1.0  0.4067084358384676  0.8049413204745054  0.11677222888449276  1.0000
  C   C59       1.0  0.6715213845814532  0.40659946980284917  0.11679584276441092  1.0000
  C   C60       1.0  0.8049127934002983  0.6715845799387029  0.116798819396706  1.0000
  C   C61       1.0  0.8946283404643369  0.28177589286290333  0.6201647412601472  1.0000
  C   C62       1.0  0.28185337916912095  0.20325961715050764  0.620212800988959  1.0000
  C   C63       1.0  0.2033027000946319  0.8947068384945357  0.6201745211393116  1.0000
  C   C64       1.0  0.6052897209272671  0.29669781148522406  0.8798275935635758  1.0000
  C   C65       1.0  0.21822544901993265  0.6053686955489612  0.8798376126416937  1.0000
  C   C66       1.0  0.2967409188211505  0.21814745710904765  0.8797861579532622  1.0000
  C   C67       1.0  0.105369355873286  0.7182252578821606  0.3798370507733039  1.0000
  C   C68       1.0  0.7181464331650389  0.7967407303165928  0.3797853682529252  1.0000
  C   C69       1.0  0.7966976438625651  0.1052913496262064  0.37982661705435544  1.0000
  C   C70       1.0  0.3947090332930543  0.7033019569293941  0.12017199394955476  1.0000
  C   C71       1.0  0.7817738354469058  0.39463136358192236  0.12016320777696163  1.0000
  C   C72       1.0  0.7032588941689824  0.7818524007263365  0.1202129799510415  1.0000
  C   C73       1.0  0.8583688930470643  0.32006971212181423  0.5762970771324017  1.0000
  C   C74       1.0  0.3201076641161791  0.2451343333764342  0.576379465471575  1.0000
  C   C75       1.0  0.2451656390375945  0.8584203884420563  0.576333534401705  1.0000
  C   C76       1.0  0.6415750251364969  0.2548353275280846  0.9236684554940382  1.0000
  C   C77       1.0  0.179932609238314  0.6416280960193463  0.9237041408483577  1.0000
  C   C78       1.0  0.25486525652839737  0.17989277369221673  0.9236192430876711  1.0000
  C   C79       1.0  0.1416298613466083  0.6799315273299983  0.4237031000675415  1.0000
  C   C80       1.0  0.6798926778730845  0.7548653236394641  0.4236187667348403  1.0000
  C   C81       1.0  0.7548347055177872  0.14157681970123565  0.4236683758921129  1.0000
  C   C82       1.0  0.3584237297975861  0.7451644416005437  0.07633229724378049  1.0000
  C   C83       1.0  0.8200666752863127  0.35837245345727115  0.07629687613256658  1.0000
  C   C84       1.0  0.7451345570599273  0.8201061041657172  0.07638066691677625  1.0000
  C   C85       1.0  0.957740250609696  0.16781905518040938  0.6872837954188281  1.0000
  C   C86       1.0  0.16784941094864786  0.18702770840975097  0.6873403895692146  1.0000
  C   C87       1.0  0.18704700547536393  0.9576867388177138  0.6873791612691631  1.0000
  C   C88       1.0  0.5423088528662491  0.31295195808619547  0.8126227796028045  1.0000
  C   C89       1.0  0.3321823661718  0.5422606450319095  0.812715446363377  1.0000
  C   C90       1.0  0.31297511225847785  0.33214931650336893  0.8126581203416304  1.0000
  C   C91       1.0  0.042259033857142504  0.8321810039504745  0.3127170249998272  1.0000
  C   C92       1.0  0.8321504020414852  0.8129721494256333  0.31265874833508894  1.0000
  C   C93       1.0  0.8129517510153689  0.04231009014055342  0.31262351936086213  1.0000
  C   C94       1.0  0.4576867259385369  0.6870470526723907  0.1873795138074356  1.0000
  C   C95       1.0  0.6678158579685771  0.4577422648485625  0.18728389577189122  1.0000
  C   C96       1.0  0.6870268185159816  0.6678487592666402  0.18734010891240155  1.0000
  C   C97       1.0  0.7276320737387962  0.40145592211460013  0.4238870941492934  1.0000
  C   C98       1.0  0.40142730629203527  0.44697619135511996  0.42394465089408556  1.0000
  C   C99       1.0  0.44697910367074917  0.7275774918263382  0.4239714658082647  1.0000
  C   C100      1.0  0.7724225463602822  0.053023203253125935  0.07602660669898142  1.0000
  C   C101      1.0  0.09854508460767872  0.7723697508523557  0.0761104332833185  1.0000
  C   C102      1.0  0.0530244341790294  0.09857182457560043  0.07605767308692889  1.0000
  C   C103      1.0  0.2723682678256338  0.5985461859159502  0.5761109556437842  1.0000
  C   C104      1.0  0.5985709200609648  0.5530232887232813  0.5760575877958087  1.0000
  C   C105      1.0  0.5530238859823058  0.272423615200843  0.5760271048023424  1.0000
  C   C106      1.0  0.22757779634274303  0.9469764544767898  0.9239727907321154  1.0000
  C   C107      1.0  0.9014557873901836  0.22763019664181178  0.9238886434203977  1.0000
  C   C108      1.0  0.9469769692617334  0.9014264536799389  0.9239441807225999  1.0000
  C   C109      1.0  0.8012205602999175  0.38160009419341634  0.40407984031888583  1.0000
  C   C110      1.0  0.3815971536203122  0.413032806776215  0.4041534087819016  1.0000
  C   C111      1.0  0.41300791119059005  0.8011678392316101  0.4041521515257641  1.0000
  C   C112      1.0  0.6988338528350795  0.08699300415667469  0.09584582754343529  1.0000
  C   C113      1.0  0.11840116333510052  0.6987795845650953  0.09591940437663737  1.0000
  C   C114      1.0  0.0869709660416689  0.1184006538911504  0.0958462567949354  1.0000
  C   C115      1.0  0.1987781936111332  0.6184031059273211  0.595919957905444  1.0000
  C   C116      1.0  0.618401600413094  0.586969412891058  0.5958463847261227  1.0000
  C   C117      1.0  0.5869940202840668  0.19883415954227257  0.5958480386346706  1.0000
  C   C118      1.0  0.3011686071118618  0.9130063418310433  0.9041520856995218  1.0000
  C   C119      1.0  0.8815986498929504  0.3012202735082923  0.9040801219358979  1.0000
  C   C120      1.0  0.9130325544050922  0.88159731238418  0.9041537244182221  1.0000
  C   C121      1.0  0.840997806433407  0.34220462544313096  0.44535646696805015  1.0000
  C   C122      1.0  0.3422298153817708  0.37134158737544726  0.44545687639651976  1.0000
  C   C123      1.0  0.37136428442621394  0.8409692111761586  0.44541134499405627  1.0000
  C   C124      1.0  0.6590325030259266  0.12863488506916806  0.05458887044973433  1.0000
  C   C125      1.0  0.1577979879646136  0.659002385216752  0.0546433874285058  1.0000
  C   C126      1.0  0.1286621725767603  0.1577669490247473  0.054544368260927505  1.0000
  C   C127      1.0  0.15900147683705507  0.6577973936426605  0.5546428092503104  1.0000
  C   C128      1.0  0.6577694687825826  0.6286599423166311  0.5545437568924851  1.0000
  C   C129      1.0  0.6286371175156802  0.15903249759546886  0.5545887774855343  1.0000
  C   C130      1.0  0.34096889946315656  0.8713633922343437  0.9454114297268743  1.0000
  C   C131      1.0  0.8422039435746029  0.3409981427579325  0.9453566014533407  1.0000
  C   C132      1.0  0.8713413487061105  0.8422300375111366  0.9454567734606129  1.0000
  C   C133      1.0  0.7315472908292265  0.3423086697127929  0.5280539126587696  1.0000
  C   C134      1.0  0.3422659271681923  0.3980573513786681  0.5281243858832595  1.0000
  C   C135      1.0  0.39810709243472797  0.7315626774267372  0.5281131492861135  1.0000
  C   C136      1.0  0.7684376655986966  0.10189455156431407  0.9718862323443243  1.0000
  C   C137      1.0  0.1576925345610221  0.7684514136867122  0.9719451408952863  1.0000
  C   C138      1.0  0.1019412731284817  0.15773242640200644  0.9718778596964693  1.0000
  C   C139      1.0  0.26845146279290333  0.6576920786792686  0.47194490275420964  1.0000
  C   C140      1.0  0.6577344164355098  0.6019398558126028  0.47187597077763155  1.0000
  C   C141      1.0  0.6018964281276027  0.2684362695400679  0.4718872250515886  1.0000
  C   C142      1.0  0.23156320699736455  0.8981044159524036  0.028113616459527882  1.0000
  C   C143      1.0  0.8423072787248174  0.23154893473241617  0.028054581979517768  1.0000
  C   C144      1.0  0.8980590715492484  0.8422638012878211  0.02812404588103572  1.0000
  C   C145      1.0  0.6933283284965485  0.3812658258238956  0.48562876499155266  1.0000
  C   C146      1.0  0.38120523655155136  0.43975604502533383  0.48568069853308754  1.0000
  C   C147      1.0  0.4397778800705651  0.6933157652958788  0.48570224983496485  1.0000
  C   C148      1.0  0.8066855941187896  0.060225120244744815  0.014294254264427878  1.0000
  C   C149      1.0  0.11873509899233173  0.8066714404961104  0.01437193223014794  1.0000
  C   C150      1.0  0.0602443929963243  0.11879296995003588  0.014321673364150899  1.0000
  C   C151      1.0  0.3066709562659966  0.6187347238907253  0.5143726403976031  1.0000
  C   C152      1.0  0.6187945781685897  0.5602423436768905  0.514320956950243  1.0000
  C   C153      1.0  0.5602256384014909  0.30668563101954055  0.514295223231798  1.0000
  C   C154      1.0  0.19331739452481142  0.939775495484675  0.9857025661509905  1.0000
  C   C155      1.0  0.8812652442443181  0.19332870805555322  0.985628438579681  1.0000
  C   C156      1.0  0.9397580690408989  0.881203926689068  0.9856791411497525  1.0000
  C   C157      1.0  0.684915318689619  0.4468091316116587  0.3802367682292029  1.0000
  C   C158      1.0  0.4468368016823732  0.487915731447103  0.38028119905059293  1.0000
  C   C159      1.0  0.4879343077376745  0.6848652896546668  0.38031810480696027  1.0000
  C   C160      1.0  0.8151387416694575  0.012064865096910349  0.11967962409907772  1.0000
  C   C161      1.0  0.0531932059130256  0.8150838653360993  0.11976283405316929  1.0000
  C   C162      1.0  0.012085789136165198  0.053160604411338915  0.11972261523251147  1.0000
  C   C163      1.0  0.3150839653013833  0.553190927043218  0.619763275372989  1.0000
  C   C164      1.0  0.5531614245482787  0.5120847290847551  0.6197210443556143  1.0000
  C   C165      1.0  0.512067092467433  0.31513984939505235  0.6196798979344605  1.0000
  C   C166      1.0  0.18486583671779044  0.9879322091937084  0.8803183491560274  1.0000
  C   C167      1.0  0.9468055483650843  0.18491639342425287  0.8802369500222297  1.0000
  C   C168      1.0  0.9879124384064398  0.9468388768570863  0.8802815654985351  1.0000
  C   C169      1.0  0.9200819260670485  0.3213710822177661  0.4239234767985776  1.0000
  C   C170      1.0  0.3214204750115499  0.3344901445331133  0.42404834731453883  1.0000
  C   C171      1.0  0.33453881394875407  0.9200543061024505  0.4239483703835775  1.0000
  C   C172      1.0  0.5799458305919813  0.16546028711209718  0.0760536653574135  1.0000
  C   C173      1.0  0.17862903686247483  0.5799188425604174  0.07607711977880872  1.0000
  C   C174      1.0  0.1655119149672544  0.1785781654591717  0.07595088422046808  1.0000
  C   C175      1.0  0.07991735851535252  0.6786299576045921  0.5760777367446224  1.0000
  C   C176      1.0  0.6785788092173703  0.6655099143597673  0.5759520846958849  1.0000
  C   C177      1.0  0.6654610011180894  0.07994702467417615  0.5760544644733796  1.0000
  C   C178      1.0  0.4200550426600458  0.8345381907728964  0.9239471521088587  1.0000
  C   C179      1.0  0.8213713053579283  0.42008277583841663  0.9239218986766885  1.0000
  C   C180      1.0  0.8344894865055892  0.8214215816915104  0.9240480636018161  1.0000
  C   C181      1.0  0.6939733412176851  0.32213512883676293  0.594386303231161  1.0000
  C   C182      1.0  0.3221177987632303  0.3894635891215189  0.5944457176662395  1.0000
  C   C183      1.0  0.3895201593013553  0.693989130932451  0.5944474664416646  1.0000
  C   C184      1.0  0.8060125631437813  0.11048181552526888  0.9055496997204739  1.0000
  C   C185      1.0  0.17786343195184884  0.8060270807870397  0.9056150573983855  1.0000
  C   C186      1.0  0.11053520435952892  0.17788255101539363  0.9055545152834341  1.0000
  C   C187      1.0  0.3060280615670976  0.6778636390504859  0.4056145819159551  1.0000
  C   C188      1.0  0.6778830746689338  0.6105343986557443  0.40555529164599596  1.0000
  C   C189      1.0  0.6104812420491329  0.30601159667169514  0.4055514860969252  1.0000
  C   C190      1.0  0.19398936618959084  0.8895201811065692  0.09444699476588886  1.0000
  C   C191      1.0  0.8221347932693419  0.1939728884470642  0.09438543581262585  1.0000
  C   C192      1.0  0.8894640792779855  0.8221165267100052  0.09444474678598865  1.0000
  C   C193      1.0  0.8575543043920604  0.16931372839418668  0.5471723452543812  1.0000
  C   C194      1.0  0.1693279962463947  0.42587890022711866  0.5472165718263539  1.0000
  C   C195      1.0  0.42588648496213477  0.8575993161107293  0.5471617333335814  1.0000
  C   C196      1.0  0.642402329601623  0.07411221464637667  0.9528375224388695  1.0000
  C   C197      1.0  0.33068800140683413  0.6424461935237105  0.9528273288493381  1.0000
  C   C198      1.0  0.07412207436939872  0.3306695660777805  0.9527843034630689  1.0000
  C   C199      1.0  0.1424460390247262  0.8306859300497468  0.4528282174014107  1.0000
  C   C200      1.0  0.8306723472281803  0.5741212485625483  0.45278418739170684  1.0000
  C   C201      1.0  0.5741133290374592  0.14240103302240933  0.452839154765911  1.0000
  C   C202      1.0  0.35759907241162386  0.9258860621811207  0.04716200092128273  1.0000
  C   C203      1.0  0.66931287046868  0.3575547344239212  0.04717175257068353  1.0000
  C   C204      1.0  0.9258782690473879  0.6693300923661457  0.04721625919271584  1.0000
  C   C205      1.0  0.8322534715916988  0.3996279253979367  0.5546207284026109  1.0000
  C   C206      1.0  0.3996748940377159  0.2134324698381747  0.5547036041370816  1.0000
  C   C207      1.0  0.2134448807248717  0.8322961935110059  0.5546388393889642  1.0000
  C   C208      1.0  0.6677011307531302  0.2865547351431559  0.9453621545198131  1.0000
  C   C209      1.0  0.1003724469294269  0.6677458512476876  0.9453799594392078  1.0000
  C   C210      1.0  0.286567202985445  0.10032434588466548  0.9452951428320514  1.0000
  C   C211      1.0  0.16774528358030244  0.6003718439687019  0.4453804127434322  1.0000
  C   C212      1.0  0.6003249185411406  0.7865659167220048  0.44529455567217696  1.0000
  C   C213      1.0  0.7865554633546737  0.16770101415627892  0.4453622940883901  1.0000
  C   C214      1.0  0.3322976231069248  0.7134460134869162  0.05463704930139088  1.0000
  C   C215      1.0  0.8996268378331181  0.33225469846693306  0.05462144594994089  1.0000
  C   C216      1.0  0.7134320810123357  0.8996737516252794  0.0547045029292904  1.0000
  O   O1        1.0  0.9669773177237178  0.2043718116670873  0.7069650870879655  1.0000
  O   O2        1.0  0.2043675793977613  0.12152512659488217  0.7070270180065633  1.0000
  O   O3        1.0  0.12156743726728793  0.9668831658167113  0.7071021198164897  1.0000
  O   O4        1.0  0.5331116786219354  0.3784317975177559  0.792898070922561  1.0000
  O   O5        1.0  0.2956319164704055  0.5330182246721125  0.7930349613885423  1.0000
  O   O6        1.0  0.3784756674073932  0.29563438232009526  0.7929725646134287  1.0000
  O   O7        1.0  0.0330198490165827  0.7956305198749127  0.2930368385432301  1.0000
  O   O8        1.0  0.7956327628294275  0.8784745306590267  0.2929716026080769  1.0000
  O   O9        1.0  0.8784355550300165  0.03311009924880171  0.2928991319212313  1.0000
  O   O10       1.0  0.4668823116355726  0.6215687947247233  0.20710461384828688  1.0000
  O   O11       1.0  0.7043663080302379  0.466983704992906  0.20696476443863795  1.0000
  O   O12       1.0  0.6215257323932234  0.7043673243094872  0.20702406219209732  1.0000
  O   O13       1.0  0.7167274870829274  0.47047399106259774  0.3250317481668573  1.0000
  O   O14       1.0  0.4704671074769139  0.48765437197987893  0.3250772573125644  1.0000
  O   O15       1.0  0.48769360629589903  0.7167326067883125  0.3251110119237027  1.0000
  O   O16       1.0  0.7832732130864883  0.0123057467298935  0.17488245147910664  1.0000
  O   O17       1.0  0.029531519909653508  0.7832655543531288  0.17496746169167215  1.0000
  O   O18       1.0  0.012345557212988502  0.029529792532230207  0.17492426748349738  1.0000
  O   O19       1.0  0.2832670293696893  0.5295288489949926  0.6749659644104683  1.0000
  O   O20       1.0  0.5295295308114377  0.5123447289134972  0.6749257517135376  1.0000
  O   O21       1.0  0.512310967472395  0.28327573950406293  0.674881772057894  1.0000
  O   O22       1.0  0.21673295152661612  0.9876902340425106  0.8251114428953628  1.0000
  O   O23       1.0  0.9704661769173768  0.21673167457807807  0.8250343114765284  1.0000
  O   O24       1.0  0.9876516095850932  0.9704730293555032  0.8250778547099671  1.0000
  O   O25       1.0  0.6183646120946662  0.4598176031986086  0.40177797455792325  1.0000
  O   O26       1.0  0.45994167121978075  0.5198450391720971  0.4017995527062792  1.0000
  O   O27       1.0  0.5198738466179905  0.6182908508169617  0.40183963852297916  1.0000
  O   O28       1.0  0.8817092330737495  0.980128127760786  0.09816041050024887  1.0000
  O   O29       1.0  0.040183765271329705  0.8816342640782869  0.09821941443443888  1.0000
  O   O30       1.0  0.98015904818309  0.040053310324538176  0.09820405821024275  1.0000
  O   O31       1.0  0.3816373184350894  0.5401824334783216  0.5982202641287413  1.0000
  O   O32       1.0  0.5400554965945474  0.4801563128684594  0.5982039218415167  1.0000
  O   O33       1.0  0.4801270251283897  0.3817130187290588  0.5981598454542122  1.0000
  O   O34       1.0  0.11829216821895729  0.019872109497626418  0.9018383454760721  1.0000
  O   O35       1.0  0.9598144595318064  0.1183661950255441  0.9017804985223914  1.0000
  O   O36       1.0  0.019839179121589702  0.9599461707058767  0.901799734112572  1.0000
  O   O37       1.0  0.9789585913536882  0.10031042434683718  0.7036890704863692  1.0000
  O   O38       1.0  0.1003471317626747  0.21699631404803907  0.7037577595032187  1.0000
  O   O39       1.0  0.21695049072667422  0.9788255482036522  0.7038239141667049  1.0000
  O   O40       1.0  0.5211654153552133  0.28305171982596283  0.7961785667746635  1.0000
  O   O41       1.0  0.3996898888628238  0.5210431059355686  0.7963095064732356  1.0000
  O   O42       1.0  0.28300789365341217  0.39965719580214915  0.7962353026219587  1.0000
  O   O43       1.0  0.021038575097684004  0.8996894554664936  0.2963118723334686  1.0000
  O   O44       1.0  0.8996537398749213  0.7830046136615824  0.29624093350857816  1.0000
  O   O45       1.0  0.7830503870661758  0.021167050768653446  0.29618308953337896  1.0000
  O   O46       1.0  0.47882804351040426  0.7169529931458176  0.20382193529348308  1.0000
  O   O47       1.0  0.6003109827747721  0.4789578217740527  0.20368918653855414  1.0000
  O   O48       1.0  0.7169935056713684  0.6003445103514197  0.2037605473671035  1.0000
  O   O49       1.0  0.5726574246016227  0.572642107913119  0.2819995279270342  1.0000
  O   O50       1.0  0.9273627194869364  0.927339364554534  0.21799874260128127  1.0000
  O   O51       1.0  0.42734132675010267  0.4273615799352939  0.7179961943690428  1.0000
  O   O52       1.0  0.0726376231005261  0.07265931248391412  0.7820002617052777  1.0000
