data_image0
_chemical_formula_structural       Al16H144C224O80
_chemical_formula_sum              "Al16 H144 C224 O80"
_cell_length_a       18.53208025000153
_cell_length_b       18.532107149003703
_cell_length_c       37.64755274900713
_cell_angle_alpha    90.00006346755514
_cell_angle_beta     89.9999692288677
_cell_angle_gamma    90.00003496410815

_space_group_name_H-M_alt    "P 1"
_space_group_IT_number       1

loop_
  _space_group_symop_operation_xyz
  'x, y, z'

loop_
  _atom_site_type_symbol
  _atom_site_label
  _atom_site_symmetry_multiplicity
  _atom_site_fract_x
  _atom_site_fract_y
  _atom_site_fract_z
  _atom_site_occupancy
  Al  Al1       1.0  0.32877117486408747  0.6712286821208908  1.3935028420000003e-07  1.0000
  Al  Al2       1.0  0.8287720230729008  0.8287727345063588  0.49999968113790055  1.0000
  Al  Al3       1.0  0.6712280376362186  0.3287706975505176  2.6633339439999993e-07  1.0000
  Al  Al4       1.0  0.171227723960456  0.17122723149828542  0.500000120283481  1.0000
  Al  Al5       1.0  0.4066485098949427  0.6394482749695174  0.0790373959211408  1.0000
  Al  Al6       1.0  0.8605504113979094  0.9066484891223116  0.57903777055175  1.0000
  Al  Al7       1.0  0.5933500769006627  0.3605502034757181  0.07903756084080979  1.0000
  Al  Al8       1.0  0.1394503287445303  0.09335111526250023  0.5790381756769278  1.0000
  Al  Al9       1.0  0.9066478447874502  0.8605515703556251  0.4209618727040763  1.0000
  Al  Al10      1.0  0.09335090913702258  0.13945037608159083  0.4209623151534742  1.0000
  Al  Al11      1.0  0.6394502313795272  0.40664845994191284  0.9209626775778758  1.0000
  Al  Al12      1.0  0.3605506758909555  0.5933519144146475  0.9209624997456698  1.0000
  Al  Al13      1.0  0.5000006248791067  0.4999990056598591  0.11122297017295318  1.0000
  Al  Al14      1.0  0.9999994191862883  0.9999995282659032  0.6112228708839353  1.0000
  Al  Al15      1.0  0.9999990007429742  0.9999998174090837  0.3887765393566482  1.0000
  Al  Al16      1.0  0.5000002013637256  0.49999988113672356  0.8887765656264719  1.0000
  H   H1        1.0  0.3792074498891012  0.5620959695567012  0.028380433718282895  1.0000
  H   H2        1.0  0.937905480920108  0.8792068919176402  0.5283800112088954  1.0000
  H   H3        1.0  0.6207933505097644  0.43790347402356394  0.028380102278234197  1.0000
  H   H4        1.0  0.0620958540113321  0.1207920587880693  0.528380186146542  1.0000
  H   H5        1.0  0.8792073164186006  0.9379054778414049  0.471620435902011  1.0000
  H   H6        1.0  0.12079300113509109  0.06209496386027523  0.4716202976924535  1.0000
  H   H7        1.0  0.5620951451068308  0.37920692961999697  0.9716206875894428  1.0000
  H   H8        1.0  0.43790462776965455  0.6207935588114496  0.9716202386072651  1.0000
  H   H9        1.0  0.4935476273728625  0.7935327153959123  0.0248216845767857  1.0000
  H   H10       1.0  0.7064641500220362  0.9935494542823095  0.5248226040494544  1.0000
  H   H11       1.0  0.5064499392729901  0.20646402214916293  0.024821257301503898  1.0000
  H   H12       1.0  0.2935366491803535  0.006449488411362802  0.5248218585387505  1.0000
  H   H13       1.0  0.9935489675704828  0.7064644849246805  0.47517756103903247  1.0000
  H   H14       1.0  0.0064486480835981  0.2935365043918027  0.4751786417017243  1.0000
  H   H15       1.0  0.7935349269841723  0.4935480223810416  0.9751792195395551  1.0000
  H   H16       1.0  0.20646538162048236  0.5064519344598893  0.9751787695318157  1.0000
  H   H17       1.0  0.5242105871344052  0.5917057502833315  0.0671699292997872  1.0000
  H   H18       1.0  0.9082938442334481  0.024209711585889707  0.5671700857620721  1.0000
  H   H19       1.0  0.4757885521945012  0.4082943202499153  0.0671698857400997  1.0000
  H   H20       1.0  0.09170582962758539  0.9757893264693537  0.5671699218796249  1.0000
  H   H21       1.0  0.024209412125998097  0.908293861726044  0.43282997182713956  1.0000
  H   H22       1.0  0.9757893288692542  0.09170595302047962  0.432830420238318  1.0000
  H   H23       1.0  0.5917060254986382  0.5242109130516398  0.9328301539786351  1.0000
  H   H24       1.0  0.4082948688438607  0.47578948802920723  0.932830165067344  1.0000
  H   H25       1.0  0.2042038432447626  0.5525407001219593  0.1104418307712862  1.0000
  H   H26       1.0  0.9474590863143392  0.7042015237948507  0.610441338752608  1.0000
  H   H27       1.0  0.7957984865747392  0.4474589282507893  0.1104414582017412  1.0000
  H   H28       1.0  0.052540000804249594  0.29579815130593806  0.6104413459584777  1.0000
  H   H29       1.0  0.7042027257914398  0.9474601009051042  0.3895580226988713  1.0000
  H   H30       1.0  0.29579929997148463  0.05254069560763951  0.3895586298112264  1.0000
  H   H31       1.0  0.552541432889626  0.20420245008453017  0.8895589990647538  1.0000
  H   H32       1.0  0.4474595085903701  0.7957978535552643  0.8895591741550816  1.0000
  H   H33       1.0  0.3437159013774789  0.385569488333104  0.14991604578749215  1.0000
  H   H34       1.0  0.11442904321529572  0.8437154006456357  0.6499165628853376  1.0000
  H   H35       1.0  0.6562842270210609  0.6144286101174006  0.14991526989555834  1.0000
  H   H36       1.0  0.8855716197150086  0.15628382374514166  0.6499168047507168  1.0000
  H   H37       1.0  0.8437157028537853  0.11443016475798373  0.3500837639169347  1.0000
  H   H38       1.0  0.15628420749188618  0.8855716220704437  0.35008379939749545  1.0000
  H   H39       1.0  0.38557157463764463  0.3437153620082398  0.8500842489595755  1.0000
  H   H40       1.0  0.61442887023955  0.6562848527390345  0.8500843038210562  1.0000
  H   H41       1.0  0.4162568198338334  0.48398159529710943  0.787361746650653  1.0000
  H   H42       1.0  0.016017752877111505  0.9162593303662309  0.2873607586226683  1.0000
  H   H43       1.0  0.5837415349510167  0.5160173989974908  0.7873612019631222  1.0000
  H   H44       1.0  0.983981686190539  0.08374069640596822  0.28736120052454334  1.0000
  H   H45       1.0  0.9162599485943729  0.016017609177843905  0.7126395645561772  1.0000
  H   H46       1.0  0.08374010640422822  0.9839817564557977  0.7126386103822567  1.0000
  H   H47       1.0  0.48398129551522107  0.4162585026535128  0.2126383064198833  1.0000
  H   H48       1.0  0.516019843766756  0.5837418954565339  0.2126378165659233  1.0000
  H   H49       1.0  0.23661104910770803  0.595354788782494  0.8338840810341495  1.0000
  H   H50       1.0  0.9046464600783397  0.7366119767730127  0.3338842004014424  1.0000
  H   H51       1.0  0.7633894134176415  0.40464700829625855  0.8338842249597604  1.0000
  H   H52       1.0  0.0953534679140589  0.2633881547635185  0.33388391298992554  1.0000
  H   H53       1.0  0.7366123073476204  0.9046460787460759  0.6661159564573609  1.0000
  H   H54       1.0  0.26338779833149323  0.09535318212250844  0.666115267372298  1.0000
  H   H55       1.0  0.595354083980901  0.23661134680785523  0.1661159624736541  1.0000
  H   H56       1.0  0.4046454871659649  0.7633894861433749  0.1661155999973687  1.0000
  H   H57       1.0  0.0976604554098515  0.48752758075038116  0.1347878983705115  1.0000
  H   H58       1.0  0.012473881491338499  0.5976602243300492  0.6347869734684365  1.0000
  H   H59       1.0  0.902340768679025  0.512474260862831  0.1347877986389676  1.0000
  H   H60       1.0  0.9875257187110263  0.40233950559431975  0.6347870567922342  1.0000
  H   H61       1.0  0.5976596385662277  0.012473541040719703  0.3652125077259001  1.0000
  H   H62       1.0  0.40234079490277713  0.9875261214403183  0.3652130648559648  1.0000
  H   H63       1.0  0.4875271257747826  0.09766028196180804  0.8652126418159157  1.0000
  H   H64       1.0  0.5124738422266901  0.9023399668536668  0.8652133889897158  1.0000
  H   H65       1.0  0.23782543500148282  0.3206659096460741  0.1750294938871804  1.0000
  H   H66       1.0  0.17933374529765442  0.7378251695291668  0.6750297115859282  1.0000
  H   H67       1.0  0.7621730472259357  0.679334403772181  0.17502845970346925  1.0000
  H   H68       1.0  0.8206668902756533  0.2621741114130743  0.6750297627138906  1.0000
  H   H69       1.0  0.7378247638474563  0.17933421844827543  0.3249708750972502  1.0000
  H   H70       1.0  0.2621735550405546  0.820666972224146  0.3249705815534867  1.0000
  H   H71       1.0  0.3206673475248962  0.23782503474274827  0.8249705113167066  1.0000
  H   H72       1.0  0.6793336643145338  0.7621745838479869  0.8249708723138909  1.0000
  H   H73       1.0  0.35495828344087943  0.48580914924251345  0.7285127773560517  1.0000
  H   H74       1.0  0.0141901246649425  0.8549586251015315  0.22851176425579206  1.0000
  H   H75       1.0  0.6450417542656409  0.5141891729279777  0.7285122154421799  1.0000
  H   H76       1.0  0.9858104577196515  0.14503965033740232  0.2285114422111008  1.0000
  H   H77       1.0  0.8549586489546428  0.014190557438581705  0.7714882844598776  1.0000
  H   H78       1.0  0.14504026272778248  0.9858116387355268  0.771487846294626  1.0000
  H   H79       1.0  0.4858099655192803  0.3549590102330883  0.2714875330059598  1.0000
  H   H80       1.0  0.5141916492594234  0.6450404411904814  0.2714873426592135  1.0000
  H   H81       1.0  0.17424355546796727  0.5973873922339268  0.7752967491292749  1.0000
  H   H82       1.0  0.9026143211668227  0.6742423161258275  0.2752973742057918  1.0000
  H   H83       1.0  0.8257585896939048  0.40261427291454055  0.7752974066769623  1.0000
  H   H84       1.0  0.09738674985682391  0.3257571438767998  0.2752971202408574  1.0000
  H   H85       1.0  0.6742425902259299  0.9026139768484996  0.724702773632778  1.0000
  H   H86       1.0  0.32575637242229044  0.09738757436642231  0.7247023347635633  1.0000
  H   H87       1.0  0.5973861848223193  0.17424343814305848  0.2247030203063289  1.0000
  H   H88       1.0  0.40261278289705876  0.8257564475312905  0.22470322359496459  1.0000
  H   H89       1.0  0.0341408464778112  0.3782312871668126  0.1221068402509218  1.0000
  H   H90       1.0  0.1217724460021188  0.534141292713649  0.6221074986712267  1.0000
  H   H91       1.0  0.9658587726099699  0.6217699862869497  0.1221078457424198  1.0000
  H   H92       1.0  0.8782287868274636  0.46585948786677994  0.622107645545448  1.0000
  H   H93       1.0  0.534141161744074  0.12176979587314919  0.3778938482850265  1.0000
  H   H94       1.0  0.46586033712107183  0.8782309743718245  0.37789326655622085  1.0000
  H   H95       1.0  0.37823122051539576  0.0341407726154657  0.8778931444874729  1.0000
  H   H96       1.0  0.6217681148581845  0.9658595047541358  0.8778936317130643  1.0000
  H   H97       1.0  0.14659064692958884  0.3253842287670637  0.21870166865167556  1.0000
  H   H98       1.0  0.1746159286426661  0.6465900443592433  0.7187021143760005  1.0000
  H   H99       1.0  0.8534083273281324  0.674617262204606  0.2187014046053974  1.0000
  H   H100      1.0  0.825384659355727  0.3534077161151218  0.7187016827250331  1.0000
  H   H101      1.0  0.6465894808655364  0.17461584366608215  0.2812979276246352  1.0000
  H   H102      1.0  0.353409964806005  0.8253820110372349  0.2812984093588753  1.0000
  H   H103      1.0  0.3253845688850703  0.14659035371033724  0.7812983244346938  1.0000
  H   H104      1.0  0.6746164905286208  0.8534086269320869  0.7812987363940918  1.0000
  H   H105      1.0  0.2623966301381415  0.4352767875822111  0.6989177578759892  1.0000
  H   H106      1.0  0.0647235651938658  0.762396547942636  0.19891777686713397  1.0000
  H   H107      1.0  0.7376034398078701  0.5647230867570203  0.6989179958542734  1.0000
  H   H108      1.0  0.9352770494296648  0.23760381927058216  0.1989175186395187  1.0000
  H   H109      1.0  0.7623953754436811  0.0647234022315857  0.8010822659619093  1.0000
  H   H110      1.0  0.23760404360467655  0.9352777813770818  0.8010823069960864  1.0000
  H   H111      1.0  0.43527700809464415  0.26239642928386087  0.301082266822263  1.0000
  H   H112      1.0  0.564723495235441  0.7376041679914639  0.3010823791547779  1.0000
  H   H113      1.0  0.9757334618111316  0.29765192176643757  0.0858554661310933  1.0000
  H   H114      1.0  0.2023505578726699  0.47573291571469417  0.5858546508488018  1.0000
  H   H115      1.0  0.024266196767570098  0.7023476512398406  0.08585490548580307  1.0000
  H   H116      1.0  0.797650714448416  0.524266164417071  0.5858551165053569  1.0000
  H   H117      1.0  0.4757354190777788  0.20235104949123445  0.4141451054840103  1.0000
  H   H118      1.0  0.5242638818771894  0.7976492627828834  0.41414499562581847  1.0000
  H   H119      1.0  0.2976517593792849  0.975733121537836  0.914144639202675  1.0000
  H   H120      1.0  0.7023491553180747  0.024266697861747805  0.9141448576444162  1.0000
  H   H121      1.0  0.8371413070667798  0.29677512651706917  0.1778689020334312  1.0000
  H   H122      1.0  0.20322354607018409  0.33714111638787614  0.6778688276323095  1.0000
  H   H123      1.0  0.16285879088113833  0.7032235744843263  0.17786857079186544  1.0000
  H   H124      1.0  0.7967770864106781  0.6628592501557409  0.6778688377955219  1.0000
  H   H125      1.0  0.33714066707867113  0.20322452256377949  0.322131706276366  1.0000
  H   H126      1.0  0.6628581945068034  0.7967766617158178  0.32213182486808717  1.0000
  H   H127      1.0  0.2967770677704138  0.8371416540782949  0.8221311837659113  1.0000
  H   H128      1.0  0.7032250263723796  0.16285957693072114  0.8221312118727083  1.0000
  H   H129      1.0  0.8674833551435698  0.2872299321270973  0.0467121630535985  1.0000
  H   H130      1.0  0.21277247382811743  0.3674823675328229  0.5467115710291495  1.0000
  H   H131      1.0  0.13251472726265937  0.7127722507524583  0.0467110481835604  1.0000
  H   H132      1.0  0.7872277619240505  0.6325160848487033  0.5467115671873515  1.0000
  H   H133      1.0  0.36748581573603906  0.21277459190236678  0.4532887028449153  1.0000
  H   H134      1.0  0.6325145217872361  0.7872252689144902  0.45328855864530476  1.0000
  H   H135      1.0  0.2872281585335302  0.8674848135593509  0.9532881912809046  1.0000
  H   H136      1.0  0.7127727135232647  0.13251671279853383  0.953288200325794  1.0000
  H   H137      1.0  0.7298921672064864  0.28525935940392344  0.13839011855188937  1.0000
  H   H138      1.0  0.214737622688375  0.2298915336669084  0.638390267967246  1.0000
  H   H139      1.0  0.27010797374857276  0.7147408715076866  0.1383892339460857  1.0000
  H   H140      1.0  0.7852625131938565  0.7701082043711838  0.6383898083757911  1.0000
  H   H141      1.0  0.2298925704508789  0.21474076385145932  0.3616107837759301  1.0000
  H   H142      1.0  0.770106787732928  0.7852610489342738  0.3616108676963563  1.0000
  H   H143      1.0  0.285260227662576  0.7298916136290075  0.8616099506128733  1.0000
  H   H144      1.0  0.7147418234732186  0.27010808746948817  0.8616102997315522  1.0000
  C   C1        1.0  0.4548584842285236  0.7494346483980935  0.030382995345341602  1.0000
  C   C2        1.0  0.7505633398594966  0.9548598638928425  0.5303847021960877  1.0000
  C   C3        1.0  0.5451401555691149  0.2505642600874938  0.030383113098615397  1.0000
  C   C4        1.0  0.24943529486461105  0.045139091325062  0.5303837238221689  1.0000
  C   C5        1.0  0.954859857402951  0.7505641471301345  0.46961519802862733  1.0000
  C   C6        1.0  0.0451383039145554  0.24943467124483487  0.46961651003866933  1.0000
  C   C7        1.0  0.7494357135302749  0.4548589321674612  0.9696178971758016  1.0000
  C   C8        1.0  0.25056352192360265  0.5451426309615854  0.969617190952448  1.0000
  C   C9        1.0  0.34503421344457763  0.5081226993895955  0.11307623421225088  1.0000
  C   C10       1.0  0.9918761597802968  0.8450328002974745  0.6130766022926579  1.0000
  C   C11       1.0  0.6549681135041467  0.4918747764999765  0.11307645437621969  1.0000
  C   C12       1.0  0.0081245432814967  0.15496688073920958  0.6130776070063604  1.0000
  C   C13       1.0  0.8450336655787821  0.9918760291371886  0.3869222538618118  1.0000
  C   C14       1.0  0.1549662046356488  0.008124221836041603  0.3869234053032997  1.0000
  C   C15       1.0  0.5081239057829093  0.34503369355381613  0.886922749777085  1.0000
  C   C16       1.0  0.4918770385684895  0.6549660645459243  0.8869233676114233  1.0000
  C   C17       1.0  0.36653491594474014  0.5393952083144883  0.8494258290564716  1.0000
  C   C18       1.0  0.9606040516699464  0.8665357151401311  0.34942574323787307  1.0000
  C   C19       1.0  0.6334655296497829  0.46060554455433345  0.849426037874089  1.0000
  C   C20       1.0  0.0393937009729726  0.1334655306019812  0.34942593109102654  1.0000
  C   C21       1.0  0.8665356856674788  0.9606041196655328  0.6505744396560614  1.0000
  C   C22       1.0  0.13346551615104124  0.03939456660237541  0.6505742857224206  1.0000
  C   C23       1.0  0.5393927944609657  0.3665339368292069  0.1505739591893018  1.0000
  C   C24       1.0  0.46060625401152333  0.6334657819150069  0.15057351110152684  1.0000
  C   C25       1.0  0.2803344959787637  0.47222229994997617  0.12825119015273154  1.0000
  C   C26       1.0  0.027775514947421705  0.7803329189630049  0.6282516694546557  1.0000
  C   C27       1.0  0.7196667352303336  0.527776828922619  0.1282506158840846  1.0000
  C   C28       1.0  0.9722240923740911  0.21966625664052236  0.6282516572921253  1.0000
  C   C29       1.0  0.7803331417521662  0.027777314472381007  0.3717478394688811  1.0000
  C   C30       1.0  0.21966674499337557  0.9722250607458212  0.37174870224905016  1.0000
  C   C31       1.0  0.47222398500748847  0.28033352158088587  0.8717488422322076  1.0000
  C   C32       1.0  0.5277758966641314  0.7196662023485062  0.8717492201947435  1.0000
  C   C33       1.0  0.32995026729620497  0.5392834594116708  0.8141613902851219  1.0000
  C   C34       1.0  0.9607168371219572  0.8299516003518833  0.3141604928069341  1.0000
  C   C35       1.0  0.6700502167138966  0.46071667444137193  0.8141610582338501  1.0000
  C   C36       1.0  0.03928257275160261  0.17004902637375355  0.3141607006241003  1.0000
  C   C37       1.0  0.8299515382763757  0.9607163858537294  0.6858394193570874  1.0000
  C   C38       1.0  0.1700496251262891  0.03928291943054771  0.6858392556760151  1.0000
  C   C39       1.0  0.5392832243072759  0.32994990138546854  0.1858386584422647  1.0000
  C   C40       1.0  0.4607174045641288  0.6700504363750143  0.1858382302599395  1.0000
  C   C41       1.0  0.2109251378061643  0.5013830166467275  0.12435666463231598  1.0000
  C   C42       1.0  0.9986163166290611  0.7109239422736738  0.6243567137432962  1.0000
  C   C43       1.0  0.789076097645342  0.4986166430604942  0.1243565873396619  1.0000
  C   C44       1.0  0.0013843741449121997  0.28907468495521027  0.6243567308306268  1.0000
  C   C45       1.0  0.7109235271328557  0.9986167092719925  0.3756426558149784  1.0000
  C   C46       1.0  0.2890763553695166  0.0013840559043956006  0.3756432368320474  1.0000
  C   C47       1.0  0.5013842066783737  0.21092426641320836  0.8756430964938885  1.0000
  C   C48       1.0  0.4986167499603694  0.7890754662865406  0.8756440512409327  1.0000
  C   C49       1.0  0.28946943614904797  0.4074250511744709  0.14699422225764636  1.0000
  C   C50       1.0  0.09257341384931549  0.789468995936531  0.6469947143335801  1.0000
  C   C51       1.0  0.7105306954324391  0.5925741199051091  0.1469939513371088  1.0000
  C   C52       1.0  0.9074272522642131  0.21053076147838118  0.6469947143494891  1.0000
  C   C53       1.0  0.7894681418925771  0.09257510842525823  0.353005070566951  1.0000
  C   C54       1.0  0.2105312256656546  0.9074272245863642  0.35300590045780206  1.0000
  C   C55       1.0  0.4074260916820478  0.28946843760736135  0.8530055367096665  1.0000
  C   C56       1.0  0.5925743500123772  0.7105317837192262  0.8530064237810748  1.0000
  C   C57       1.0  0.3630825502181025  0.5083657429321632  0.7843570497550729  1.0000
  C   C58       1.0  0.9916340617673001  0.8630832646546553  0.2843564356417616  1.0000
  C   C59       1.0  0.6369185058642515  0.49163378420107057  0.784356477701472  1.0000
  C   C60       1.0  0.008365380573707202  0.13691729495536015  0.2843561023485676  1.0000
  C   C61       1.0  0.863083267998185  0.9916341225462802  0.7156437511147331  1.0000
  C   C62       1.0  0.13691732333207804  0.008365789458110805  0.7156441106023194  1.0000
  C   C63       1.0  0.508364940675591  0.3630816139416952  0.2156432649039317  1.0000
  C   C64       1.0  0.4916356557274639  0.6369177117275203  0.21564334172474278  1.0000
  C   C65       1.0  0.2619805757068292  0.5717967367433731  0.810495565611987  1.0000
  C   C66       1.0  0.9282050878024818  0.7619792834352952  0.3104954329271195  1.0000
  C   C67       1.0  0.7380215311113645  0.42820500766788444  0.8104957290911796  1.0000
  C   C68       1.0  0.0717937864583007  0.23802025582916297  0.3104959347952345  1.0000
  C   C69       1.0  0.7619802040339039  0.9282046858660922  0.6895044651627629  1.0000
  C   C70       1.0  0.23802095537571696  0.07179246925493032  0.68950403557821  1.0000
  C   C71       1.0  0.5717943925314728  0.2619786917655561  0.1895044781491606  1.0000
  C   C72       1.0  0.4282051531362399  0.7380200354377779  0.18950436123331826  1.0000
  C   C73       1.0  0.15152110271831987  0.46464245358722445  0.137990217990847  1.0000
  C   C74       1.0  0.03535691818061079  0.6515202731734748  0.6379911774494431  1.0000
  C   C75       1.0  0.8484801178814437  0.5353577764254069  0.1379904106111596  1.0000
  C   C76       1.0  0.964644297345977  0.3484778451531981  0.637989909375662  1.0000
  C   C77       1.0  0.6515192241225805  0.03535762185396151  0.36200964260162743  1.0000
  C   C78       1.0  0.3484801336265591  0.9646425730171515  0.3620091390369566  1.0000
  C   C79       1.0  0.46464304275179547  0.15152084923402503  0.8620092640478562  1.0000
  C   C80       1.0  0.5353568495299257  0.8484788527625329  0.8620091789496485  1.0000
  C   C81       1.0  0.23020677756754535  0.37172160770410306  0.1611335192447285  1.0000
  C   C82       1.0  0.12827796040691913  0.7302075479909721  0.6611339923300221  1.0000
  C   C83       1.0  0.7697927990070355  0.6282786744227454  0.16113272084513136  1.0000
  C   C84       1.0  0.8717221506999876  0.26979332047061183  0.6611329716051201  1.0000
  C   C85       1.0  0.7302055205068853  0.1282785157415134  0.33886632051395077  1.0000
  C   C86       1.0  0.26979278324376565  0.8717227062223428  0.3388665840159106  1.0000
  C   C87       1.0  0.3717231277656694  0.23020639643550578  0.8388659608000067  1.0000
  C   C88       1.0  0.628277329331887  0.7697937930502479  0.8388666050884196  1.0000
  C   C89       1.0  0.3283169083982784  0.5093051461014895  0.7516109686137042  1.0000
  C   C90       1.0  0.9906935377750655  0.8283170784130576  0.251610605916035  1.0000
  C   C91       1.0  0.6716836437511873  0.4906948468961192  0.7516109180864985  1.0000
  C   C92       1.0  0.0093059402374109  0.17168286785369705  0.2516105569391058  1.0000
  C   C93       1.0  0.8283170503280034  0.9906941585627469  0.7483895758394609  1.0000
  C   C94       1.0  0.17168296572580027  0.009305827180682503  0.7483896610127019  1.0000
  C   C95       1.0  0.5093049038422065  0.3283171208253749  0.24838907568624077  1.0000
  C   C96       1.0  0.490696196494369  0.6716833577913024  0.24838890607769323  1.0000
  C   C97       1.0  0.2276811526397609  0.5731645855652162  0.7776586419674771  1.0000
  C   C98       1.0  0.9268361177683531  0.7276814732724262  0.2776584952060475  1.0000
  C   C99       1.0  0.7723193711344507  0.42683492648438925  0.7776585299979073  1.0000
  C   C100      1.0  0.07316387147340458  0.27231799204709267  0.2776584841572358  1.0000
  C   C101      1.0  0.7276818235698671  0.9268351973074691  0.7223416635097166  1.0000
  C   C102      1.0  0.27231930006926314  0.07316472977905161  0.7223412255909167  1.0000
  C   C103      1.0  0.5731633416303836  0.22768149598658027  0.22234139718166548  1.0000
  C   C104      1.0  0.42683562866196917  0.7723189239733942  0.22234129931722182  1.0000
  C   C105      1.0  0.16006139830699342  0.39894892186775627  0.1563406613310221  1.0000
  C   C106      1.0  0.10105110073644138  0.6600606271106034  0.6563408365835812  1.0000
  C   C107      1.0  0.8399387230934253  0.6010518890709451  0.15634036076597366  1.0000
  C   C108      1.0  0.8989495551956351  0.33993807214230304  0.6563406437364421  1.0000
  C   C109      1.0  0.6600606590105897  0.10105115878370442  0.3436589313785632  1.0000
  C   C110      1.0  0.33993979793834944  0.8989489947647872  0.3436589255221492  1.0000
  C   C111      1.0  0.39894994461921124  0.16006112177067425  0.8436585470810981  1.0000
  C   C112      1.0  0.6010499676529761  0.8399396181110179  0.843658971178975  1.0000
  C   C113      1.0  0.2599716519309538  0.5415507793708302  0.7476423353901893  1.0000
  C   C114      1.0  0.9584505117112129  0.7599697364251699  0.24764247174977064  1.0000
  C   C115      1.0  0.7400305233561255  0.4584492046906663  0.7476425148178834  1.0000
  C   C116      1.0  0.041551129042957796  0.240029661302792  0.2476427170990831  1.0000
  C   C117      1.0  0.7599696114362473  0.9584501024081792  0.752357430295028  1.0000
  C   C118      1.0  0.2400293210864461  0.041552050685616806  0.7523569836991724  1.0000
  C   C119      1.0  0.5415495070013135  0.2599703470487215  0.2523574382317689  1.0000
  C   C120      1.0  0.458449430592644  0.7400290612955164  0.2523573144025519  1.0000
  C   C121      1.0  0.09724921799384842  0.35699632132153886  0.1691162562270492  1.0000
  C   C122      1.0  0.14300427087642478  0.5972491245170987  0.6691169431702305  1.0000
  C   C123      1.0  0.9027492706749669  0.6430050579900668  0.1691162275128164  1.0000
  C   C124      1.0  0.8569958315333678  0.4027490639009487  0.6691159987922219  1.0000
  C   C125      1.0  0.5972485182223295  0.14300372101002526  0.3308836187349087  1.0000
  C   C126      1.0  0.402750873433618  0.8569953245612897  0.3308833077661788  1.0000
  C   C127      1.0  0.35699619653360054  0.09724902520896712  0.8308832031331761  1.0000
  C   C128      1.0  0.6430031900501589  0.9027511463006591  0.8308841815918981  1.0000
  C   C129      1.0  0.2223158871461166  0.5407548129163686  0.713004497728285  1.0000
  C   C130      1.0  0.9592453569991618  0.7223155877280122  0.21300461895561534  1.0000
  C   C131      1.0  0.7776847070597556  0.4592450931436432  0.7130038707551662  1.0000
  C   C132      1.0  0.04075524227851449  0.27768427160327047  0.2130046194117199  1.0000
  C   C133      1.0  0.7223143490090536  0.9592455062858677  0.7869952779268913  1.0000
  C   C134      1.0  0.27768400617562616  0.040755645599773516  0.7869948209273829  1.0000
  C   C135      1.0  0.5407535595194304  0.22231519665803032  0.2869950048866912  1.0000
  C   C136      1.0  0.4592458799464794  0.777683750082126  0.2869951669861948  1.0000
  C   C137      1.0  0.035884287250425494  0.3501940297479464  0.14757860756940028  1.0000
  C   C138      1.0  0.1498086807767365  0.535883711409298  0.6475784737577752  1.0000
  C   C139      1.0  0.964115304089361  0.6498051426479851  0.147578831934787  1.0000
  C   C140      1.0  0.8501936035150874  0.4641149681124477  0.6475783614835321  1.0000
  C   C141      1.0  0.5358824889597216  0.14980759395814405  0.3524212836408225  1.0000
  C   C142      1.0  0.46411633962962634  0.8501931189255532  0.3524212183387546  1.0000
  C   C143      1.0  0.3501944472005718  0.03588473566018281  0.8524211078647852  1.0000
  C   C144      1.0  0.6498049159220329  0.9641181823694895  0.85242132109596  1.0000
  C   C145      1.0  0.0989581175587446  0.32057848159892194  0.20182328571591057  1.0000
  C   C146      1.0  0.1794227231188756  0.5989591776730381  0.701822915965856  1.0000
  C   C147      1.0  0.9010403354803884  0.6794229713651561  0.20182354291961957  1.0000
  C   C148      1.0  0.8205773436621442  0.40104016360437816  0.7018233084065031  1.0000
  C   C149      1.0  0.5989580152510642  0.17942102217104156  0.2981763231718374  1.0000
  C   C150      1.0  0.40104195163909395  0.8205779497485611  0.298176789676539  1.0000
  C   C151      1.0  0.320578284940197  0.09895898249635593  0.7981764344047093  1.0000
  C   C152      1.0  0.6794205976680985  0.9010405757568877  0.7981768710461308  1.0000
  C   C153      1.0  0.228770633911779  0.48057598810500957  0.6906718203553266  1.0000
  C   C154      1.0  0.019423734002096196  0.728769479896073  0.19067155376709619  1.0000
  C   C155      1.0  0.7712316034372436  0.5194254864772604  0.6906712278826532  1.0000
  C   C156      1.0  0.9805768896046273  0.271230868747388  0.19067103624711723  1.0000
  C   C157      1.0  0.7287688029789051  0.019424181194502007  0.809328478007366  1.0000
  C   C158      1.0  0.2712306070862596  0.9805770209839301  0.8093288004430619  1.0000
  C   C159      1.0  0.4805757395507798  0.22876940744276208  0.3093284715991941  1.0000
  C   C160      1.0  0.5194247547960841  0.7712306687979764  0.3093286142486207  1.0000
  C   C161      1.0  0.977460160856907  0.3069348118158288  0.1579002575865118  1.0000
  C   C162      1.0  0.1930671576744061  0.47745918734545995  0.6579005041890795  1.0000
  C   C163      1.0  0.022539958843651696  0.6930649234279972  0.1579010204477527  1.0000
  C   C164      1.0  0.8069340361637103  0.5225400550236685  0.6579001695825255  1.0000
  C   C165      1.0  0.47745841370554126  0.1930660020770462  0.3420995167067602  1.0000
  C   C166      1.0  0.5225398865233615  0.8069352271668538  0.34209914674302405  1.0000
  C   C167      1.0  0.30693462102691876  0.9774619346145529  0.8420993180468271  1.0000
  C   C168      1.0  0.6930647533399253  0.02254149977578381  0.8420995380055769  1.0000
  C   C169      1.0  0.9139670290660362  0.2983189084244771  0.1346132254182208  1.0000
  C   C170      1.0  0.2016824816854026  0.4139671932753546  0.63461318190226  1.0000
  C   C171      1.0  0.08603203679309962  0.7016802347742657  0.1346129136769747  1.0000
  C   C172      1.0  0.7983176583108713  0.5860319966539438  0.6346134154164814  1.0000
  C   C173      1.0  0.4139684994349722  0.20168240633808676  0.3653868313074539  1.0000
  C   C174      1.0  0.5860324734496629  0.7983183357429979  0.3653867054593789  1.0000
  C   C175      1.0  0.2983192582595607  0.9139672897083176  0.8653866057364041  1.0000
  C   C176      1.0  0.7016822491576349  0.08603241989386133  0.8653863267676981  1.0000
  C   C177      1.0  0.9218717195329801  0.2953413338882244  0.09746977337869109  1.0000
  C   C178      1.0  0.2046611229868347  0.4218712724294349  0.5974694678580404  1.0000
  C   C179      1.0  0.07812738678882881  0.7046588048761964  0.0974694653531216  1.0000
  C   C180      1.0  0.7953401366819008  0.578128373461226  0.5974696978539951  1.0000
  C   C181      1.0  0.42187261165272355  0.20466160450876464  0.4025302812545632  1.0000
  C   C182      1.0  0.5781272415599047  0.7953392212144054  0.4025301558760859  1.0000
  C   C183      1.0  0.29534116138779604  0.921871990292438  0.9025303240876212  1.0000
  C   C184      1.0  0.7046597659621127  0.07812888216098912  0.9025303056450654  1.0000
  C   C185      1.0  0.8442608676860105  0.29308042747759805  0.1491748702969531  1.0000
  C   C186      1.0  0.20691985695309967  0.344261160595437  0.649174533673964  1.0000
  C   C187      1.0  0.15573818231066378  0.7069192881158841  0.14917427733257677  1.0000
  C   C188      1.0  0.7930802671813099  0.6557391413317435  0.6491742753147065  1.0000
  C   C189      1.0  0.34426127790519695  0.20692084475948752  0.35082600174960277  1.0000
  C   C190      1.0  0.6557407900505297  0.7930787853249371  0.3508261202116998  1.0000
  C   C191      1.0  0.2930791424180157  0.8442596022310271  0.8508262784681334  1.0000
  C   C192      1.0  0.7069207620461385  0.15573953497801804  0.8508255048524518  1.0000
  C   C193      1.0  0.8619442962846193  0.28855954724480887  0.07552173929553868  1.0000
  C   C194      1.0  0.2114428701461577  0.3619439036366573  0.5755216760856496  1.0000
  C   C195      1.0  0.1380537547371645  0.7114410816984817  0.07552088785550377  1.0000
  C   C196      1.0  0.7885584134314456  0.6380551532260059  0.5755216749097227  1.0000
  C   C197      1.0  0.36194570823916195  0.21144335459295152  0.4244791280692652  1.0000
  C   C198      1.0  0.6380535814580953  0.788555901743962  0.4244789831281465  1.0000
  C   C199      1.0  0.2885582984396393  0.8619468252020754  0.9244783488280888  1.0000
  C   C200      1.0  0.7114431446061146  0.13805517588414776  0.9244786268643636  1.0000
  C   C201      1.0  0.7842185086264662  0.2865900271317514  0.1273580533368488  1.0000
  C   C202      1.0  0.2134096777929102  0.2842183165957907  0.6273582245587191  1.0000
  C   C203      1.0  0.21578164434581026  0.7134096393338967  0.1273579792544268  1.0000
  C   C204      1.0  0.7865904701072991  0.715781936203527  0.627357735013355  1.0000
  C   C205      1.0  0.2842188990411216  0.21341066887057997  0.37264256898554743  1.0000
  C   C206      1.0  0.7157815263342115  0.7865900895502096  0.37264319925741046  1.0000
  C   C207      1.0  0.2865887453232148  0.7842173430038387  0.872642820488025  1.0000
  C   C208      1.0  0.7134122145851052  0.21578238293714952  0.8726415466276477  1.0000
  C   C209      1.0  0.7926800715423425  0.28471756200097087  0.0903471466607044  1.0000
  C   C210      1.0  0.21528374810666406  0.2926792669374265  0.5903467903269614  1.0000
  C   C211      1.0  0.2073195821440095  0.7152841795361555  0.09034654459656367  1.0000
  C   C212      1.0  0.7847169797161513  0.7073198233097245  0.5903470935316049  1.0000
  C   C213      1.0  0.2926815019925897  0.21528583718379932  0.40965320780038883  1.0000
  C   C214      1.0  0.707317803855574  0.7847155441840458  0.409653839291451  1.0000
  C   C215      1.0  0.284714680175462  0.7926810735663353  0.9096531968448219  1.0000
  C   C216      1.0  0.7152862394153701  0.20731981492638601  0.909652714741263  1.0000
  C   C217      1.0  0.727797460633603  0.28745492762007535  0.06733078609339319  1.0000
  C   C218      1.0  0.21254578593696746  0.22779778929142946  0.5673311999745039  1.0000
  C   C219      1.0  0.2722005993100752  0.7125429848582385  0.0673301653577738  1.0000
  C   C220      1.0  0.7874549669580873  0.7722012491272213  0.5673312721863438  1.0000
  C   C221      1.0  0.22779994354894478  0.21254573396116433  0.432669319924372  1.0000
  C   C222      1.0  0.7722004164364904  0.7874556992358069  0.4326694044865603  1.0000
  C   C223      1.0  0.2874536819497564  0.7277974910045445  0.9326700799504761  1.0000
  C   C224      1.0  0.712545054147725  0.27220183050657465  0.9326696339267996  1.0000
  O   O1        1.0  0.3690995837314901  0.6115145312211184  0.0349487373451396  1.0000
  O   O2        1.0  0.8884863055705452  0.8691001004556047  0.5349485694439692  1.0000
  O   O3        1.0  0.6308995906972186  0.3884838479418279  0.0349486419222913  1.0000
  O   O4        1.0  0.11151556181025062  0.13089886504183573  0.534948736803912  1.0000
  O   O5        1.0  0.8690988876469774  0.8884874496131021  0.4650510724655774  1.0000
  O   O6        1.0  0.1308992786434757  0.11151351689951385  0.46505175537225807  1.0000
  O   O7        1.0  0.6115126954728466  0.3690996139107129  0.9650515926042614  1.0000
  O   O8        1.0  0.38848600535020245  0.6309013993316911  0.9650511622141593  1.0000
  O   O9        1.0  0.4017090373104395  0.744675300919518  0.009440869593476  1.0000
  O   O10       1.0  0.7553221100349887  0.9017120808505297  0.5094428212161759  1.0000
  O   O11       1.0  0.5982885460901245  0.2553214019907842  0.0094412414886875  1.0000
  O   O12       1.0  0.24467870592155794  0.09828736681390642  0.5094421386836174  1.0000
  O   O13       1.0  0.9017120093913248  0.7553229225790475  0.49055654098805235  1.0000
  O   O14       1.0  0.09828666871869979  0.24467756176610328  0.49055836757643323  1.0000
  O   O15       1.0  0.7446774505178126  0.4017090349637869  0.9905592179520254  1.0000
  O   O16       1.0  0.25532176212308844  0.5982920357190908  0.9905590706728802  1.0000
  O   O17       1.0  0.28989969506938  0.736655669548874  0.9662223293380805  1.0000
  O   O18       1.0  0.7633427856344  0.7899022990577652  0.4662227161098471  1.0000
  O   O19       1.0  0.7100984648733402  0.2633448067256482  0.9662218791356381  1.0000
  O   O20       1.0  0.23665591898512867  0.21009920969657978  0.46622262786950586  1.0000
  O   O21       1.0  0.7899020904313616  0.7633436116783303  0.533777959665045  1.0000
  O   O22       1.0  0.21009869901511277  0.23665535118245642  0.5337778929276027  1.0000
  O   O23       1.0  0.7366556325337754  0.2899019968927875  0.0337780070463367  1.0000
  O   O24       1.0  0.2633446223804228  0.7100979984462942  0.0337779185660168  1.0000
  O   O25       1.0  0.4800973412592954  0.5703471397196084  0.0762685286979732  1.0000
  O   O26       1.0  0.9296527693686228  0.9800972514196505  0.5762686771199057  1.0000
  O   O27       1.0  0.5199023277629777  0.4296524116980721  0.076267953853332  1.0000
  O   O28       1.0  0.07034689458129859  0.019902886332303603  0.5762682636552299  1.0000
  O   O29       1.0  0.9800967153149714  0.9296532900192676  0.42373098610175924  1.0000
  O   O30       1.0  0.019902035592323796  0.07034704384178532  0.4237316759661524  1.0000
  O   O31       1.0  0.5703484578475511  0.4800977259202669  0.9237307485456511  1.0000
  O   O32       1.0  0.42965244640711825  0.5199026546704745  0.9237313092596011  1.0000
  O   O33       1.0  0.4381840802611947  0.6709212811853363  0.12433702474471178  1.0000
  O   O34       1.0  0.8290806427026282  0.938181372168813  0.6243379389756711  1.0000
  O   O35       1.0  0.5618171552115854  0.32907837847792365  0.1243371808645506  1.0000
  O   O36       1.0  0.1709200480922419  0.061818873830041816  0.6243380529650794  1.0000
  O   O37       1.0  0.9381807472668839  0.8290818210020705  0.3756619699105173  1.0000
  O   O38       1.0  0.06181697679551949  0.17092002342511142  0.3756624378567749  1.0000
  O   O39       1.0  0.6709205589273068  0.4381812601772241  0.8756625263360006  1.0000
  O   O40       1.0  0.329079318480602  0.5618168537528164  0.8756626052751811  1.0000
  O   O41       1.0  0.46967492704314395  0.7097586765487026  0.0569663838027807  1.0000
  O   O42       1.0  0.7902404730018731  0.9696790518446509  0.5569681022094173  1.0000
  O   O43       1.0  0.530322064981128  0.2902397521948501  0.05696652709838901  1.0000
  O   O44       1.0  0.20976083078771518  0.030321582049616297  0.5569679231306068  1.0000
  O   O45       1.0  0.9696790514193337  0.7902417468313631  0.44303154002678724  1.0000
  O   O46       1.0  0.030320757673131  0.20976132851306775  0.4430325687197936  1.0000
  O   O47       1.0  0.7097602082481275  0.4696774964465432  0.9430339739939767  1.0000
  O   O48       1.0  0.2902395957700818  0.5303256256317114  0.9430337804344758  1.0000
  O   O49       1.0  0.333448975792983  0.7098277334359654  0.08283235937231839  1.0000
  O   O50       1.0  0.7901718875230869  0.8334490246602972  0.5828329601331885  1.0000
  O   O51       1.0  0.6665501464740657  0.2901723723669961  0.0828322009402029  1.0000
  O   O52       1.0  0.2098293880900144  0.16655058827068817  0.582833120888651  1.0000
  O   O53       1.0  0.8334482718597087  0.7901726068365352  0.4171674598772269  1.0000
  O   O54       1.0  0.1665521050129826  0.2098293310560564  0.417167390051425  1.0000
  O   O55       1.0  0.7098287105733546  0.3334490298698257  0.9171674481103551  1.0000
  O   O56       1.0  0.29017004241150357  0.6665502567322648  0.9171678600414664  1.0000
  O   O57       1.0  0.3401562113625189  0.5730732062259706  0.102515937978886  1.0000
  O   O58       1.0  0.9269260891597353  0.8401552876215563  0.6025154981229335  1.0000
  O   O59       1.0  0.6598450478810634  0.426924785485916  0.102515324595764  1.0000
  O   O60       1.0  0.0730735461970013  0.15984329042410655  0.6025162226757672  1.0000
  O   O61       1.0  0.8401556123471535  0.9269265985332429  0.39748281700855154  1.0000
  O   O62       1.0  0.1598431671538663  0.07307421582421371  0.3974834713064155  1.0000
  O   O63       1.0  0.5730739734263821  0.3401557046800435  0.8974833200459215  1.0000
  O   O64       1.0  0.42692588021113653  0.6598435375961318  0.8974836921136671  1.0000
  O   O65       1.0  0.4814894811972934  0.5678984992031817  0.1492921322845007  1.0000
  O   O66       1.0  0.9321046943622238  0.9814868148074681  0.6492933440979058  1.0000
  O   O67       1.0  0.5185117270905906  0.43210337507331803  0.1492934184937482  1.0000
  O   O68       1.0  0.06789596924769367  0.0185140269915962  0.6492931961468357  1.0000
  O   O69       1.0  0.9814867778783024  0.9321051690077484  0.3507065852832412  1.0000
  O   O70       1.0  0.018513131788211  0.06789554001584011  0.3507072741796193  1.0000
  O   O71       1.0  0.5678954544916478  0.4814855045578952  0.8507066135675103  1.0000
  O   O72       1.0  0.4321028312874446  0.5185120135699536  0.850706641632314  1.0000
  O   O73       1.0  0.5972557705140958  0.5299206199106695  0.1117781144163459  1.0000
  O   O74       1.0  0.9700769763711178  0.0972559803764241  0.6117785747256264  1.0000
  O   O75       1.0  0.4027449390343704  0.47007685305496966  0.11177812386249288  1.0000
  O   O76       1.0  0.029922648895222895  0.902743158132147  0.611778918642031  1.0000
  O   O77       1.0  0.09725576102267301  0.970076878245699  0.3882215017480561  1.0000
  O   O78       1.0  0.9027435681725534  0.029923375651108607  0.3882208733484873  1.0000
  O   O79       1.0  0.5299229379481999  0.5972548852799521  0.8882209079525296  1.0000
  O   O80       1.0  0.470077465384577  0.40274487574216533  0.8882208628813544  1.0000
