data_image0
_chemical_formula_structural       Zn12H120C252Br24N12O48
_chemical_formula_sum              "Zn12 H120 C252 Br24 N12 O48"
_cell_length_a       14.012269489048514
_cell_length_b       21.40839561419221
_cell_length_c       28.51803398909501
_cell_angle_alpha    90.00003576859005
_cell_angle_beta     89.99970455422722
_cell_angle_gamma    93.58289660965802

_space_group_name_H-M_alt    "P 1"
_space_group_IT_number       1

loop_
  _space_group_symop_operation_xyz
  'x, y, z'

loop_
  _atom_site_type_symbol
  _atom_site_label
  _atom_site_symmetry_multiplicity
  _atom_site_fract_x
  _atom_site_fract_y
  _atom_site_fract_z
  _atom_site_occupancy
  Zn  Zn1       1.0  0.8943880820877652  0.7459347483058352  0.3080265863664522  1.0000
  Zn  Zn2       1.0  0.10070163677315948  0.7541745798448429  0.3089508697059032  1.0000
  Zn  Zn3       1.0  0.10561206438020315  0.25406523496076255  0.8080261735563141  1.0000
  Zn  Zn4       1.0  0.8992964924339117  0.2458268074473153  0.8089526489368597  1.0000
  Zn  Zn5       1.0  0.20731741056076902  0.11447326293832559  0.48492905496647865  1.0000
  Zn  Zn6       1.0  0.4140264017117231  0.1219094716811853  0.4864576518550123  1.0000
  Zn  Zn7       1.0  0.20233571534610206  0.6102532119096296  0.9871790873801274  1.0000
  Zn  Zn8       1.0  0.4081419124749245  0.6234565666068121  0.9851874581253953  1.0000
  Zn  Zn9       1.0  0.7926820476557309  0.8855239838680334  0.984928949872483  1.0000
  Zn  Zn10      1.0  0.5859739321016588  0.8780896479644865  0.9864591192374166  1.0000
  Zn  Zn11      1.0  0.7976659493336907  0.3897449722586402  0.4871781757168209  1.0000
  Zn  Zn12      1.0  0.5918602177748297  0.37654629697033937  0.48518846460182635  1.0000
  H   H1        1.0  0.1457486064600744  0.6477305033807497  0.42460532404917484  1.0000
  H   H2        1.0  0.8407274555858562  0.6123751679493808  0.4276719675249154  1.0000
  H   H3        1.0  0.854453725887204  0.5494221602498115  0.5011170403406453  1.0000
  H   H4        1.0  0.8613145408894024  0.43207025931275206  0.6137187354124549  1.0000
  H   H5        1.0  0.851664923973082  0.3623438900937259  0.6842898653617056  1.0000
  H   H6        1.0  0.15293235237376723  0.39972219616830534  0.7079266808096494  1.0000
  H   H7        1.0  0.1517057125663115  0.8901697037453075  0.4271690143054415  1.0000
  H   H8        1.0  0.8469008020506761  0.8534847844997415  0.4234886984086899  1.0000
  H   H9        1.0  0.1364701797434549  0.9549870133531757  0.4993584571306684  1.0000
  H   H10       1.0  0.1308373294789646  0.07717950405312018  0.6071311154735144  1.0000
  H   H11       1.0  0.8507565018346311  0.09491659764200479  0.7125466605131622  1.0000
  H   H12       1.0  0.14480698728040406  0.144520803962024  0.6788997355036843  1.0000
  H   H13       1.0  0.7485518698060429  0.796572349554701  0.2454376157985934  1.0000
  H   H14       1.0  0.7391901930315325  0.7069143235475791  0.3738665159204118  1.0000
  H   H15       1.0  0.5700573868917828  0.8021574649785351  0.243338820670786  1.0000
  H   H16       1.0  0.5604537034969466  0.7105089359216947  0.37859953800385443  1.0000
  H   H17       1.0  0.4294277612955141  0.7130091172961316  0.2422796483257272  1.0000
  H   H18       1.0  0.43300924724102413  0.7999380401012174  0.3792877062214616  1.0000
  H   H19       1.0  0.25358535034943225  0.7973650474472649  0.3749783792953211  1.0000
  H   H20       1.0  0.25039760523143423  0.7115458598350131  0.24510545537366113  1.0000
  H   H21       1.0  0.8542517045534833  0.35226905918703727  0.9246062154218537  1.0000
  H   H22       1.0  0.1592736704935191  0.3876258000564618  0.9276707800107147  1.0000
  H   H23       1.0  0.14554686223226546  0.45057863465061126  0.0011160570218394002  1.0000
  H   H24       1.0  0.13868536176105545  0.5679282410616436  0.11371852583056352  1.0000
  H   H25       1.0  0.1483309396671615  0.6376574462022474  0.18428826140232252  1.0000
  H   H26       1.0  0.8470619258580283  0.6002800854347187  0.2079243400319868  1.0000
  H   H27       1.0  0.8482941248457504  0.10983266784711528  0.9271691057739274  1.0000
  H   H28       1.0  0.15309902934795616  0.1465171175861215  0.923488465439128  1.0000
  H   H29       1.0  0.8635294390110457  0.045013515425147  0.9993588302357426  1.0000
  H   H30       1.0  0.8691640693752161  0.9228189939366016  0.10712851928238362  1.0000
  H   H31       1.0  0.14923960226769845  0.9050828781100364  0.21254588097526295  1.0000
  H   H32       1.0  0.8551900931820027  0.8554777223054726  0.17889714314971172  1.0000
  H   H33       1.0  0.2514508938587311  0.20342573677982048  0.7454389134806335  1.0000
  H   H34       1.0  0.2608065441009017  0.2930870898052121  0.873867130615402  1.0000
  H   H35       1.0  0.42994620132645867  0.19784155668887848  0.7433414165334044  1.0000
  H   H36       1.0  0.43954307312270646  0.2894934153837738  0.8786007498898132  1.0000
  H   H37       1.0  0.5705711980966868  0.28699364715310327  0.7422812282019535  1.0000
  H   H38       1.0  0.5669894408238034  0.20006197178742016  0.8792889037542438  1.0000
  H   H39       1.0  0.74641347170607  0.20263589874461735  0.87497912320287  1.0000
  H   H40       1.0  0.7496021717294779  0.28845830995562954  0.7451076340675087  1.0000
  H   H41       1.0  0.5540642578551597  0.0431558267409926  0.5315990670052457  1.0000
  H   H42       1.0  0.733367893929909  0.039063827760642794  0.5359655493362396  1.0000
  H   H43       1.0  0.8637339284910011  0.05475652801389691  0.43412947576981514  1.0000
  H   H44       1.0  0.8904699210595053  0.18583191705735663  0.549271350955479  1.0000
  H   H45       1.0  0.06919701820226007  0.1799914308895367  0.5429528805660198  1.0000
  H   H46       1.0  0.04316661260259017  0.055567574543530895  0.4322527568357161  1.0000
  H   H47       1.0  0.45846489565902704  0.9918478323147186  0.6005554263460269  1.0000
  H   H48       1.0  0.15256989449635935  0.9692930614274148  0.587048566297689  1.0000
  H   H49       1.0  0.4502446544017147  0.9252747395908755  0.6727090626292382  1.0000
  H   H50       1.0  0.14814472022694494  0.7807669170752549  0.787855147196183  1.0000
  H   H51       1.0  0.15064903379470704  0.7154595203432307  0.8608068616646847  1.0000
  H   H52       1.0  0.4525700939036667  0.7612840536620168  0.8745248267018583  1.0000
  H   H53       1.0  0.4607653953569295  0.2740693976313011  0.5853038531448008  1.0000
  H   H54       1.0  0.1651505038216357  0.22229483618118445  0.6150646823592822  1.0000
  H   H55       1.0  0.17405735110173734  0.2900105089626805  0.6865391090905888  1.0000
  H   H56       1.0  0.16727629207984757  0.41798401763820436  0.7944150973881607  1.0000
  H   H57       1.0  0.1543345182664453  0.48159289164479463  0.8676326583866256  1.0000
  H   H58       1.0  0.4598992273016193  0.4912173450656639  0.8824032775526974  1.0000
  H   H59       1.0  0.4463786244501548  0.7947133142592406  0.0721750026751522  1.0000
  H   H60       1.0  0.16834559452403391  0.717640433795296  0.11432831292295022  1.0000
  H   H61       1.0  0.17589201459932005  0.785309043799323  0.18584166410675357  1.0000
  H   H62       1.0  0.1682486857191705  0.908857795806668  0.2983164968278161  1.0000
  H   H63       1.0  0.1573067140175084  0.9747734204644873  0.3703246456742022  1.0000
  H   H64       1.0  0.45934876527351765  0.022615697457560195  0.36357637948008664  1.0000
  H   H65       1.0  0.46920297067023836  0.5149551746484208  0.1041813220659122  1.0000
  H   H66       1.0  0.17173966794260304  0.4556906420882285  0.0899454303368401  1.0000
  H   H67       1.0  0.18535152387713072  0.38339280217221733  0.15792659009273546  1.0000
  H   H68       1.0  0.21144191637124263  0.2477621504399111  0.2698564009347351  1.0000
  H   H69       1.0  0.2011683149067806  0.1895534543664256  0.3459675375911146  1.0000
  H   H70       1.0  0.44527483047579597  0.30171142246032906  0.39701039444049263  1.0000
  H   H71       1.0  0.5441827699335702  0.5273014285878049  0.9641991403278497  1.0000
  H   H72       1.0  0.5745513375375209  0.7153042215206894  0.9988144353321715  1.0000
  H   H73       1.0  0.7523999229782985  0.7150730464364515  0.9983545007495138  1.0000
  H   H74       1.0  0.7216293047997054  0.5180408076567603  0.9637907504678509  1.0000
  H   H75       1.0  0.8762087816244343  0.6767303774715714  0.0426741497791454  1.0000
  H   H76       1.0  0.8679488059065292  0.5492928607786639  0.9247913902626125  1.0000
  H   H77       1.0  0.04635411731086239  0.5492889012846263  0.9305102170722749  1.0000
  H   H78       1.0  0.05469880643109091  0.6714144892590853  0.04285367333095281  1.0000
  H   H79       1.0  0.5754730375005934  0.20470526564579938  0.4518141248020697  1.0000
  H   H80       1.0  0.7551549922672361  0.20759795984518092  0.4525744691009734  1.0000
  H   H81       1.0  0.44593543349164105  0.9568388961859496  0.031602118152577  1.0000
  H   H82       1.0  0.2666322410433679  0.9609360451613609  0.03596555037720609  1.0000
  H   H83       1.0  0.13626637194091978  0.945243974440089  0.9341307120132356  1.0000
  H   H84       1.0  0.10953078852995898  0.8141679613718082  0.0492720320686644  1.0000
  H   H85       1.0  0.9308030882185035  0.8200089128738669  0.04295428776975291  1.0000
  H   H86       1.0  0.9568337074383703  0.9444329271532084  0.9322547178380773  1.0000
  H   H87       1.0  0.5415344753549076  0.008151130631553398  0.10055603697322373  1.0000
  H   H88       1.0  0.8474284571967626  0.030708703920417704  0.0870470094522489  1.0000
  H   H89       1.0  0.5497531154565534  0.0747228482737725  0.1727103849513369  1.0000
  H   H90       1.0  0.8518549233677248  0.21923305791367653  0.2878554208200229  1.0000
  H   H91       1.0  0.8493534602576243  0.2845409527939324  0.3608064709497186  1.0000
  H   H92       1.0  0.5474326570716384  0.2387206372025759  0.3745255305097075  1.0000
  H   H93       1.0  0.5392356068684163  0.7259300274554831  0.08530445556037591  1.0000
  H   H94       1.0  0.8348514813057972  0.7777031971267547  0.1150645596826649  1.0000
  H   H95       1.0  0.8259431734018319  0.7099875530530612  0.1865389772379373  1.0000
  H   H96       1.0  0.8327274315775665  0.5820145567572936  0.2944138363606754  1.0000
  H   H97       1.0  0.8456685291735082  0.5184066483417524  0.36763203603356936  1.0000
  H   H98       1.0  0.5401045573486767  0.5087840731042732  0.38240412658972645  1.0000
  H   H99       1.0  0.5536213544838444  0.20528891338243935  0.572177288513771  1.0000
  H   H100      1.0  0.8316553712346173  0.28236181113241093  0.6143295794477268  1.0000
  H   H101      1.0  0.8241074456539008  0.214692761830598  0.6858425673735766  1.0000
  H   H102      1.0  0.8317521424638624  0.09114077961490348  0.7983169721211143  1.0000
  H   H103      1.0  0.8426947000346272  0.025224248249251995  0.8703243610062829  1.0000
  H   H104      1.0  0.540651603281759  0.9773852444073583  0.8635780083185838  1.0000
  H   H105      1.0  0.5308050620002189  0.48503770726899387  0.6041834462927369  1.0000
  H   H106      1.0  0.8282623552778288  0.54431252917815  0.5899429711015927  1.0000
  H   H107      1.0  0.8146489862725158  0.6166094603497427  0.6579241992699212  1.0000
  H   H108      1.0  0.7885607700130421  0.7522378178340714  0.7698569450953415  1.0000
  H   H109      1.0  0.7988293385071328  0.8104470118218783  0.8459680830129985  1.0000
  H   H110      1.0  0.5547220671327507  0.6982867242210061  0.8970097527875397  1.0000
  H   H111      1.0  0.4558194017536365  0.47269955443403694  0.46419948478916956  1.0000
  H   H112      1.0  0.4254512305454765  0.2846972436294309  0.49881546991974807  1.0000
  H   H113      1.0  0.24760202518701385  0.28492935443347994  0.4983563369403967  1.0000
  H   H114      1.0  0.2783736293103374  0.481960643358498  0.46379014646939964  1.0000
  H   H115      1.0  0.12379074746252874  0.3232713701059566  0.5426761779281364  1.0000
  H   H116      1.0  0.13205297498811316  0.45070717015973827  0.4247918438334395  1.0000
  H   H117      1.0  0.9536483174954993  0.4507111320987818  0.4305099905578658  1.0000
  H   H118      1.0  0.9453006763121504  0.32858679036932165  0.5428539721354184  1.0000
  H   H119      1.0  0.42452422545230195  0.7952877551946856  0.9518187678612976  1.0000
  H   H120      1.0  0.2448427519947884  0.792400209535167  0.9525767610478512  1.0000
  C   C1        1.0  0.003685546052217599  0.16707483220407227  0.7413782798690391  1.0000
  C   C2        1.0  0.9864907115220373  0.6698849630040158  0.37702735139367866  1.0000
  C   C3        1.0  0.9925907119570849  0.6331008162848519  0.4215851050601458  1.0000
  C   C4        1.0  0.08250289331048319  0.6266020850866242  0.4419403950777223  1.0000
  C   C5        1.0  0.9102227541784628  0.606628698400293  0.44364457804119445  1.0000
  C   C6        1.0  0.0893386212889098  0.5942028900202417  0.483810726557195  1.0000
  C   C7        1.0  0.9174997704016191  0.5725573787164535  0.4847574931033734  1.0000
  C   C8        1.0  0.007520189135043204  0.5654554001578944  0.5059666285179817  1.0000
  C   C9        1.0  0.013416498033251406  0.5291635629047065  0.547004504573529  1.0000
  C   C10       1.0  0.015100264504120314  0.49559194025165715  0.5815521075052459  1.0000
  C   C11       1.0  0.012267546344062904  0.45606071300731094  0.6211326704038457  1.0000
  C   C12       1.0  0.09452929051550289  0.44573906783518413  0.6481866727184454  1.0000
  C   C13       1.0  0.9244837437325653  0.4249400652955586  0.6349034941247638  1.0000
  C   C14       1.0  0.919368322640295  0.38614037095476306  0.6739216089736928  1.0000
  C   C15       1.0  0.0891863615276876  0.40718878055255897  0.6873815181895893  1.0000
  C   C16       1.0  0.0016863517230802983  0.37690745515450885  0.7004715846516805  1.0000
  C   C17       1.0  0.9984695998026394  0.33314660267881635  0.7416274258326183  1.0000
  C   C18       1.0  0.007039259365576797  0.8309261120787709  0.3767947434983299  1.0000
  C   C19       1.0  1.0118157760903924e-06  0.8687537646602121  0.4207746513644112  1.0000
  C   C20       1.0  0.08188180524081899  0.896154802975687  0.44268384832408  1.0000
  C   C21       1.0  0.9097870755670738  0.8753160957451839  0.4407057994573833  1.0000
  C   C22       1.0  0.9021441390583927  0.908567871631277  0.4821445079978163  1.0000
  C   C23       1.0  0.07369771074051809  0.9312743132385106  0.483196477319197  1.0000
  C   C24       1.0  0.9833659046586757  0.9382334966177125  0.5041276945938407  1.0000
  C   C25       1.0  0.9774482197285506  0.9747930496190802  0.5449790540818  1.0000
  C   C26       1.0  0.9779979335096054  0.0079547904848027  0.5797953922370028  1.0000
  C   C27       1.0  0.9835924964519829  0.0463862670038893  0.6199152705992859  1.0000
  C   C28       1.0  0.07035140660878618  0.0808342928386239  0.6308463621495194  1.0000
  C   C29       1.0  0.905067018439318  0.05199013827915171  0.6504521889643797  1.0000
  C   C30       1.0  0.9121204015146699  0.09017478437112202  0.6897543372408492  1.0000
  C   C31       1.0  0.07780180265363158  0.11840545069848218  0.6704854895301936  1.0000
  C   C32       1.0  0.9985935608808131  0.12379284749076898  0.699992669212044  1.0000
  C   C33       1.0  0.7032745396006771  0.7778234879581448  0.27381550157897294  1.0000
  C   C34       1.0  0.6981894964199353  0.7282609187216947  0.346312780079181  1.0000
  C   C35       1.0  0.6045861089328424  0.7807080673628519  0.2730136786507984  1.0000
  C   C36       1.0  0.5994959666186901  0.7306489363233908  0.3486033862047719  1.0000
  C   C37       1.0  0.5508879011310908  0.7564734164119782  0.3110219712047808  1.0000
  C   C38       1.0  0.44568104913935247  0.756558495108429  0.31088464769132435  1.0000
  C   C39       1.0  0.39346252625510647  0.7322548472171634  0.2724241326554377  1.0000
  C   C40       1.0  0.39535733942393125  0.7796986080292573  0.3489209995014519  1.0000
  C   C41       1.0  0.2962048228599769  0.7784355696501635  0.3469784944711094  1.0000
  C   C42       1.0  0.29440186628468007  0.7312000927777832  0.2736417331957455  1.0000
  C   C43       1.0  0.9963103012231113  0.8329251232046319  0.241376721824281  1.0000
  C   C44       1.0  0.013511568536714001  0.33011504865815766  0.8770275583771794  1.0000
  C   C45       1.0  0.007410299817848907  0.3668982771799705  0.921585695414123  1.0000
  C   C46       1.0  0.9174979946901157  0.3733979526355498  0.9419414866884213  1.0000
  C   C47       1.0  0.08977882969304567  0.393371340146551  0.9436442706993307  1.0000
  C   C48       1.0  0.9106640146381008  0.40579763303238553  0.9838118506882055  1.0000
  C   C49       1.0  0.0825020530118294  0.4274422085383378  0.9847572201863245  1.0000
  C   C50       1.0  0.9924837387546005  0.4345435253010734  0.005967347943446602  1.0000
  C   C51       1.0  0.9865853957344864  0.4708335067565983  0.0470049053123702  1.0000
  C   C52       1.0  0.9849014016465814  0.5044065474158758  0.08155322956756092  1.0000
  C   C53       1.0  0.9877315651551438  0.5439377902218538  0.12113205055086242  1.0000
  C   C54       1.0  0.9054681553875097  0.5542599140588678  0.14818521427228148  1.0000
  C   C55       1.0  0.07551459912837541  0.5750593793965635  0.13490379867543822  1.0000
  C   C56       1.0  0.08062970141669007  0.6138600255261794  0.17392086678744795  1.0000
  C   C57       1.0  0.910810852674025  0.5928120892442267  0.18737971362354242  1.0000
  C   C58       1.0  0.998311350395262  0.6230924840199563  0.2004706244428576  1.0000
  C   C59       1.0  0.0015262893419816187  0.6668538208518058  0.2416265583644446  1.0000
  C   C60       1.0  0.9929616402545559  0.1690743672363553  0.876794846680298  1.0000
  C   C61       1.0  0.9999994047504824  0.1312473215804673  0.9207742331677196  1.0000
  C   C62       1.0  0.9181192084281232  0.10384663910988932  0.9426834093281116  1.0000
  C   C63       1.0  0.09021328957327059  0.1246858134262894  0.9407060663183274  1.0000
  C   C64       1.0  0.09785601540227867  0.0914363943699215  0.9821454412017091  1.0000
  C   C65       1.0  0.9263021658703747  0.0687271450597251  0.9831967024190932  1.0000
  C   C66       1.0  0.0166327333490344  0.061769639192732505  0.0041289596573222  1.0000
  C   C67       1.0  0.022550660556689195  0.025209634793668608  0.044979936343274615  1.0000
  C   C68       1.0  0.02200107422652314  0.9920455680093954  0.0797939240634733  1.0000
  C   C69       1.0  0.01640595858484772  0.9536127036175516  0.11991239596380861  1.0000
  C   C70       1.0  0.9296468897161528  0.9191642141730155  0.1308432602638021  1.0000
  C   C71       1.0  0.0949296901191445  0.948008844391822  0.15044981395497103  1.0000
  C   C72       1.0  0.08787518263763158  0.9098242140239279  0.18975231286088962  1.0000
  C   C73       1.0  0.9221953657453451  0.8815930721731606  0.17048238891273124  1.0000
  C   C74       1.0  0.0014019162718951809  0.8762061550362928  0.199991198927556  1.0000
  C   C75       1.0  0.2967265891016524  0.22217554559705385  0.7738173945904023  1.0000
  C   C76       1.0  0.3018095807310601  0.2717395478803794  0.8463136314804416  1.0000
  C   C77       1.0  0.3954157862984643  0.21929143402719123  0.7730156707929439  1.0000
  C   C78       1.0  0.40050170371986826  0.269351998950107  0.8486050382700583  1.0000
  C   C79       1.0  0.4491123029746474  0.24352750410637475  0.8110238385919716  1.0000
  C   C80       1.0  0.5543178180094727  0.24344336112252313  0.8108862483456465  1.0000
  C   C81       1.0  0.6065375454563691  0.26774792967186306  0.7724256123343238  1.0000
  C   C82       1.0  0.6046411302247987  0.2203032635519548  0.848922111080583  1.0000
  C   C83       1.0  0.7037943807637317  0.2215663012842556  0.8469793552942307  1.0000
  C   C84       1.0  0.7055968098315756  0.2688031523494984  0.7736433129119079  1.0000
  C   C85       1.0  0.6021561270758153  0.07804230875152031  0.5144600347272431  1.0000
  C   C86       1.0  0.7009117720533734  0.0761279328245337  0.516634322674328  1.0000
  C   C87       1.0  0.7576989922619858  0.12239253724967367  0.4933114756815798  1.0000
  C   C88       1.0  0.8632025155427595  0.12068304326749768  0.49189609673304363  1.0000
  C   C89       1.0  0.9066702366831121  0.08356909492353991  0.45868441672275406  1.0000
  C   C90       1.0  0.9216217499457  0.1565332863180586  0.5227824519582569  1.0000
  C   C91       1.0  0.0201491933152127  0.15367500502510012  0.5195421362155273  1.0000
  C   C92       1.0  0.0057942866169895975  0.08369965766233628  0.4573765623286122  1.0000
  C   C93       1.0  0.30896777702481154  0.029896249056214692  0.5492829217473059  1.0000
  C   C94       1.0  0.3060181907576833  0.985062761979023  0.5896712772089218  1.0000
  C   C95       1.0  0.39014187826798247  0.9716544624302232  0.6133386474723963  1.0000
  C   C96       1.0  0.21760386029770015  0.9591885367873519  0.6056819539259666  1.0000
  C   C97       1.0  0.21328910101723147  0.921807542940144  0.64547852287712  1.0000
  C   C98       1.0  0.38562166923551894  0.9347625023803018  0.6533533244003707  1.0000
  C   C99       1.0  0.296888570975689  0.909273858636958  0.6707455835264895  1.0000
  C   C100      1.0  0.294234025885096  0.8735401208859344  0.7122224909968935  1.0000
  C   C101      1.0  0.29655336192746506  0.8436902575843562  0.7485949042200275  1.0000
  C   C102      1.0  0.2986203208658722  0.8082110903362434  0.7901103778496291  1.0000
  C   C103      1.0  0.21426387204209618  0.776351763319191  0.8073728874705566  1.0000
  C   C104      1.0  0.3842705582494617  0.802425607083194  0.8156498966565735  1.0000
  C   C105      1.0  0.2156288484562622  0.7400642029845556  0.8476533538045816  1.0000
  C   C106      1.0  0.3859891040513401  0.7655329742542206  0.8555811097135333  1.0000
  C   C107      1.0  0.3018685388359329  0.7338052039138602  0.871710301109957  1.0000
  C   C108      1.0  0.3051487267614731  0.6933021540579462  0.9144800660615291  1.0000
  C   C109      1.0  0.3103907367591673  0.1993456615440437  0.555375245002864  1.0000
  C   C110      1.0  0.3126304058181403  0.24332712363473522  0.5962094137817573  1.0000
  C   C111      1.0  0.3981141238522453  0.2774977197233283  0.6074348418294164  1.0000
  C   C112      1.0  0.2312367788771964  0.24908909932272388  0.6241104598668841  1.0000
  C   C113      1.0  0.23590333702166072  0.2869021525892422  0.6636657842140536  1.0000
  C   C114      1.0  0.40245808760595725  0.31569354529138133  0.6467191101219213  1.0000
  C   C115      1.0  0.3219713230484586  0.32107800936667985  0.6760469714184936  1.0000
  C   C116      1.0  0.32596904843438773  0.35783837383083034  0.7169754625537906  1.0000
  C   C117      1.0  0.32638111998847547  0.387597046482469  0.7534401145176163  1.0000
  C   C118      1.0  0.3212704929438955  0.42142215682133616  0.795596611398885  1.0000
  C   C119      1.0  0.40367948312312746  0.44177268649099927  0.8214078983064114  1.0000
  C   C120      1.0  0.23089453494477388  0.43550975332932745  0.8134208892270609  1.0000
  C   C121      1.0  0.2237975271637039  0.46986520794638403  0.8543392248568367  1.0000
  C   C122      1.0  0.3964297965140274  0.47512984082158033  0.8628318788501659  1.0000
  C   C123      1.0  0.30630895412490117  0.48997941072571644  0.8792616003726154  1.0000
  C   C124      1.0  0.30014285245488276  0.5296474566146259  0.9222975434749189  1.0000
  C   C125      1.0  0.3062161523559155  0.706777204628473  0.048517498024715215  1.0000
  C   C126      1.0  0.3068750865121998  0.7515549203612577  0.08902801414431853  1.0000
  C   C127      1.0  0.3872199924966465  0.7925018195177741  0.09700848607140952  1.0000
  C   C128      1.0  0.23017331902339314  0.7499302186529846  0.1207687281762517  1.0000
  C   C129      1.0  0.23451492945129354  0.7872602204325077  0.1606231617999825  1.0000
  C   C130      1.0  0.3917381838960024  0.8293694587631747  0.1370890920367529  1.0000
  C   C131      1.0  0.31618631393297386  0.8275891301384986  0.17010093006723542  1.0000
  C   C132      1.0  0.3211952376467479  0.863808198390835  0.2113762178938217  1.0000
  C   C133      1.0  0.32310419843906146  0.8943740125851961  0.24753579803143572  1.0000
  C   C134      1.0  0.31964107252599644  0.9300579178219051  0.2889843201929665  1.0000
  C   C135      1.0  0.4016425057957845  0.9624606302686374  0.3082565902542599  1.0000
  C   C136      1.0  0.2313481639779695  0.9346822315711377  0.3124625593526673  1.0000
  C   C137      1.0  0.22556280689299504  0.9706516459041835  0.3527185058210592  1.0000
  C   C138      1.0  0.3961929799682195  0.9975933025871199  0.3489746997971039  1.0000
  C   C139      1.0  0.3078079704683531  0.0019640574755329  0.3714536875575903  1.0000
  C   C140      1.0  0.3028338139944537  0.0408900645059873  0.41506470368071297  1.0000
  C   C141      1.0  0.312516648962287  0.5366324083836105  0.0543719911699441  1.0000
  C   C142      1.0  0.31967131857398806  0.4901891496400879  0.09334485413973681  1.0000
  C   C143      1.0  0.4075770352317035  0.4859087601805643  0.11623516958675853  1.0000
  C   C144      1.0  0.23973723529899615  0.4525076585067609  0.108072820221949  1.0000
  C   C145      1.0  0.24727846563344963  0.4123849850425358  0.14592148326550364  1.0000
  C   C146      1.0  0.4147209124624565  0.4461632286098619  0.15438048761318876  1.0000
  C   C147      1.0  0.33430574225320686  0.4090367083628479  0.17074636538028193  1.0000
  C   C148      1.0  0.33760683187617246  0.371577148519961  0.21134101614173775  1.0000
  C   C149      1.0  0.3362042015077547  0.34165730387974236  0.24780565641204794  1.0000
  C   C150      1.0  0.3325332041233508  0.3085199053284954  0.29058700352639744  1.0000
  C   C151      1.0  0.39772148114550265  0.3231026147405558  0.3275098763171799  1.0000
  C   C152      1.0  0.2614793686373885  0.2596803575506427  0.2982219001607831  1.0000
  C   C153      1.0  0.2558047490717  0.2273124545688461  0.34039556434585444  1.0000
  C   C154      1.0  0.3931131871008303  0.29021776270314353  0.3695362638000148  1.0000
  C   C155      1.0  0.32240995109660975  0.241860803175399  0.37610621993192694  1.0000
  C   C156      1.0  0.3211513700359346  0.20340162843213963  0.41998686713218814  1.0000
  C   C157      1.0  0.5937847183632454  0.5672956282355912  0.971773241495292  1.0000
  C   C158      1.0  0.6101459648041396  0.6725744849120331  0.9915659843198413  1.0000
  C   C159      1.0  0.7092354016120267  0.671949547631641  0.9915556895756197  1.0000
  C   C160      1.0  0.6921905375720027  0.5629615589206126  0.9709785308231816  1.0000
  C   C161      1.0  0.7520564687561943  0.6160316663955213  0.9817039613028486  1.0000
  C   C162      1.0  0.856983029685949  0.6136205111000878  0.983245659135811  1.0000
  C   C163      1.0  0.9110374309803004  0.6484910983161782  0.0167112293324578  1.0000
  C   C164      1.0  0.9060734856176181  0.5769101348756892  0.9517493778615674  1.0000
  C   C165      1.0  0.005031660487802004  0.5767673471297172  0.9544105910480171  1.0000
  C   C166      1.0  0.009677909827182403  0.6455308127816933  0.0173810707651896  1.0000
  C   C167      1.0  0.6137229862864897  0.16880107340509196  0.4695509147056499  1.0000
  C   C168      1.0  0.7130206464344084  0.1700894120913645  0.4701195520601047  1.0000
  C   C169      1.0  0.39784320762225167  0.9219542792061401  0.0144621394597806  1.0000
  C   C170      1.0  0.2990884759882348  0.9238709962535554  0.0166345747135423  1.0000
  C   C171      1.0  0.2423005117794758  0.8776061170034024  0.9933120607572121  1.0000
  C   C172      1.0  0.13679718119536224  0.8793174824993315  0.9918969500574946  1.0000
  C   C173      1.0  0.09332913793959108  0.91643188532408  0.9586853976417373  1.0000
  C   C174      1.0  0.07837713992292088  0.8434670490307069  0.0227835764377957  1.0000
  C   C175      1.0  0.9798504440854284  0.8463253291533375  0.019544132737841804  1.0000
  C   C176      1.0  0.9942050127139265  0.9163003860152725  0.957378766057204  1.0000
  C   C177      1.0  0.6910295419890458  0.9701055007763626  0.049282552565991004  1.0000
  C   C178      1.0  0.693980669285878  0.014937132479836602  0.08967115391775592  1.0000
  C   C179      1.0  0.6098567344344018  0.028345441580206902  0.1133390943748509  1.0000
  C   C180      1.0  0.7823934940342168  0.04081229990090661  0.10568126798919762  1.0000
  C   C181      1.0  0.7867077484615802  0.07819237376646979  0.14547819418878305  1.0000
  C   C182      1.0  0.6143763918596149  0.0652360137152144  0.15335377714575324  1.0000
  C   C183      1.0  0.7031086391624867  0.09072513236162652  0.17074617394706593  1.0000
  C   C184      1.0  0.7057634199857076  0.12645841896770088  0.2122241434117527  1.0000
  C   C185      1.0  0.7034473166767012  0.1563087656551687  0.2485958751982906  1.0000
  C   C186      1.0  0.7013801907382058  0.1917907577850073  0.29011102005164713  1.0000
  C   C187      1.0  0.7857371283579935  0.22364962388456183  0.30737298011749203  1.0000
  C   C188      1.0  0.6157298198819062  0.19757765540871466  0.3156504080366815  1.0000
  C   C189      1.0  0.7843731583372244  0.2599372007495333  0.34765311627274553  1.0000
  C   C190      1.0  0.6140115704481558  0.2344703044899604  0.35558164275111187  1.0000
  C   C191      1.0  0.6981332165468853  0.2661962095289567  0.37171028512763377  1.0000
  C   C192      1.0  0.6948524926909556  0.30669834060333295  0.41448148001060764  1.0000
  C   C193      1.0  0.6896120500595088  0.8006542197601051  0.0553762025764755  1.0000
  C   C194      1.0  0.687371151637997  0.7566718379690371  0.09620930444241792  1.0000
  C   C195      1.0  0.6018859334185149  0.7225017141576586  0.10743528382011652  1.0000
  C   C196      1.0  0.7687637733222203  0.7509098734039341  0.1241104921525888  1.0000
  C   C197      1.0  0.7640968017991197  0.713096836100867  0.1636661612520669  1.0000
  C   C198      1.0  0.5975416035991684  0.6843063724647392  0.1467191945570931  1.0000
  C   C199      1.0  0.6780286863859358  0.6789209843199374  0.1760464986420942  1.0000
  C   C200      1.0  0.6740304443232077  0.6421597003307369  0.2169742813618996  1.0000
  C   C201      1.0  0.6736214711033169  0.6124001070387378  0.253439271065659  1.0000
  C   C202      1.0  0.6787317465424962  0.5785759497553825  0.2955953884742257  1.0000
  C   C203      1.0  0.5963247610632008  0.5582268349779085  0.32140792670502794  1.0000
  C   C204      1.0  0.7691082319399666  0.5644883605779681  0.3134197812512269  1.0000
  C   C205      1.0  0.7762048565767257  0.5301333904955782  0.3543380827794423  1.0000
  C   C206      1.0  0.603572676375478  0.524870633132835  0.3628315225749148  1.0000
  C   C207      1.0  0.6936918307654805  0.5100201335423691  0.3792610086828391  1.0000
  C   C208      1.0  0.6998568579605474  0.47035304092690206  0.42229761886355993  1.0000
  C   C209      1.0  0.6937860814086105  0.2932236098134169  0.5485187684827153  1.0000
  C   C210      1.0  0.6931260991750106  0.24844684633468012  0.5890289146196893  1.0000
  C   C211      1.0  0.6127804405885154  0.20750041828306817  0.5970102723266493  1.0000
  C   C212      1.0  0.7698268657549787  0.2500720287367244  0.6207701362898349  1.0000
  C   C213      1.0  0.7654855524977503  0.21274204317847287  0.6606245634124762  1.0000
  C   C214      1.0  0.608261830324686  0.1706327952129598  0.6370905218009568  1.0000
  C   C215      1.0  0.683813355293388  0.1724131371602766  0.67010251980134  1.0000
  C   C216      1.0  0.6788054275748293  0.1361940858398327  0.7113778033385502  1.0000
  C   C217      1.0  0.676898229909639  0.10562828665013062  0.7475380752893344  1.0000
  C   C218      1.0  0.6803608337095282  0.0699434620983155  0.7889862212825777  1.0000
  C   C219      1.0  0.5983578606403764  0.037541693197340506  0.808258333365089  1.0000
  C   C220      1.0  0.7686533189942251  0.0653172857391198  0.8124635331443599  1.0000
  C   C221      1.0  0.7744381664346843  0.029346951609454695  0.8527180454578698  1.0000
  C   C222      1.0  0.6038067830366174  0.0024071652264509996  0.8489757113072899  1.0000
  C   C223      1.0  0.6921914241937798  0.998035015345991  0.8714535393111191  1.0000
  C   C224      1.0  0.697167043543466  0.9591066862211051  0.9150645245675834  1.0000
  C   C225      1.0  0.6874861038713929  0.4633670044941596  0.5543716041141025  1.0000
  C   C226      1.0  0.6803344174262235  0.5098084075671921  0.5933452083074117  1.0000
  C   C227      1.0  0.5924296220294065  0.5140859984119288  0.6162371512184353  1.0000
  C   C228      1.0  0.7602671863047018  0.5474927124970251  0.6080719374678767  1.0000
  C   C229      1.0  0.7527247578022552  0.5876144650562338  0.645920638445624  1.0000
  C   C230      1.0  0.5852824914618606  0.5538315448282844  0.6543828566530508  1.0000
  C   C231      1.0  0.6656975351154839  0.5909585397012833  0.6707485479824771  1.0000
  C   C232      1.0  0.6623989648987345  0.6284190525182749  0.7113435753316679  1.0000
  C   C233      1.0  0.663801258679214  0.6583393798952953  0.7478057714911588  1.0000
  C   C234      1.0  0.6674712732060538  0.691478667659567  0.790587124841693  1.0000
  C   C235      1.0  0.602278328280576  0.6768959723252408  0.8275094547384827  1.0000
  C   C236      1.0  0.7385223521149199  0.7403200900548157  0.7982222149209833  1.0000
  C   C237      1.0  0.7441943454420821  0.7726875416239524  0.8403962305591294  1.0000
  C   C238      1.0  0.606886138647681  0.7097803733020526  0.8695358459618916  1.0000
  C   C239      1.0  0.6775887702204171  0.7581392074291388  0.8761066975090374  1.0000
  C   C240      1.0  0.6788487668585431  0.7965955921657012  0.9199880608630694  1.0000
  C   C241      1.0  0.4062174186461289  0.43270582586418266  0.4717736929396495  1.0000
  C   C242      1.0  0.3898552961588919  0.32742744505969057  0.4915671291788541  1.0000
  C   C243      1.0  0.2907658594572735  0.32805238233598283  0.4915570859152042  1.0000
  C   C244      1.0  0.3078108940679272  0.437039894721302  0.4709792337555215  1.0000
  C   C245      1.0  0.2479462781389046  0.38396979184940977  0.48170549241363153  1.0000
  C   C246      1.0  0.14301903190305146  0.3863814156509733  0.4832467560520613  1.0000
  C   C247      1.0  0.08896232496490339  0.35151017076198343  0.5167119563922284  1.0000
  C   C248      1.0  0.09392810250088247  0.4230908429847062  0.4517502657810297  1.0000
  C   C249      1.0  0.9949713271688689  0.4232336320789472  0.4544109482066078  1.0000
  C   C250      1.0  0.9903217946439253  0.3544699885454605  0.5173812675817828  1.0000
  C   C251      1.0  0.3862750273695283  0.8311942948365071  0.9695542689430925  1.0000
  C   C252      1.0  0.28697758366999426  0.8299082964855417  0.9701214041324279  1.0000
  Br  Br1       1.0  0.21164521477987105  0.5883865447795316  0.5118798262896931  1.0000
  Br  Br2       1.0  0.21538573004850992  0.48391235014327794  0.6308897540948666  1.0000
  Br  Br3       1.0  0.7791423567715582  0.9135828567877907  0.5095799363958378  1.0000
  Br  Br4       1.0  0.7868414449814337  0.006729303625370201  0.6376940854633447  1.0000
  Br  Br5       1.0  0.7883563748134745  0.41161846679310804  0.0118810524138482  1.0000
  Br  Br6       1.0  0.7846133239628299  0.5160866250446787  0.1308885841105933  1.0000
  Br  Br7       1.0  0.2208555550555572  0.0864207491072406  0.009582097943919602  1.0000
  Br  Br8       1.0  0.21315950102899703  0.9932678026354863  0.13769388656430692  1.0000
  Br  Br9       1.0  0.09191906300353739  0.8888562481595272  0.6667781737201752  1.0000
  Br  Br10      1.0  0.4997833946318195  0.8451300963130848  0.7952612580152734  1.0000
  Br  Br11      1.0  0.519812535705867  0.36058167480332054  0.6614840149689842  1.0000
  Br  Br12      1.0  0.5266457232967808  0.4230842372459449  0.7994177930295481  1.0000
  Br  Br13      1.0  0.5029852706034956  0.8825271335516334  0.1483313233368406  1.0000
  Br  Br14      1.0  0.5220258046196518  0.9582108099154211  0.2779647272132665  1.0000
  Br  Br15      1.0  0.5344895914056946  0.44307912206655686  0.1851471824897146  1.0000
  Br  Br16      1.0  0.49453389057129005  0.3882353593408325  0.3199457832271052  1.0000
  Br  Br17      1.0  0.9080797049027037  0.11114367755451582  0.16677755281459378  1.0000
  Br  Br18      1.0  0.5002151889778188  0.15487456160286678  0.2952627435017376  1.0000
  Br  Br19      1.0  0.480187492491403  0.6394159089423895  0.1614833238747622  1.0000
  Br  Br20      1.0  0.47335736782759585  0.5769157430953058  0.2994181419081628  1.0000
  Br  Br21      1.0  0.49701520637491103  0.1174737210349548  0.6483323088669694  1.0000
  Br  Br22      1.0  0.4779751897157496  0.041794777474436294  0.7779674787942313  1.0000
  Br  Br23      1.0  0.4655124659860731  0.5569123875020666  0.685148103308812  1.0000
  Br  Br24      1.0  0.5054668450116891  0.6117646288730185  0.8199445245519004  1.0000
  N   N1        1.0  0.7491258752912554  0.7513395156956122  0.3094567440977016  1.0000
  N   N2        1.0  0.2466031233590869  0.7542428761031843  0.3100727817813933  1.0000
  N   N3        1.0  0.250873498073524  0.24865999999001076  0.8094577137968174  1.0000
  N   N4        1.0  0.7533965993782484  0.24576038400095968  0.8100742295221721  1.0000
  N   N5        1.0  0.06155630864900978  0.11803770878653103  0.4873778665690978  1.0000
  N   N6        1.0  0.5594036413957111  0.12309247400523302  0.4907701775064126  1.0000
  N   N7        1.0  0.5534569106298901  0.6210929554232436  0.9822053006458802  1.0000
  N   N8        1.0  0.05604467223901819  0.6104263354341839  0.9866834462355885  1.0000
  N   N9        1.0  0.9384441489747812  0.8819628152942868  0.987379844891983  1.0000
  N   N10       1.0  0.4405948641857477  0.8769029029367915  0.9907723635158805  1.0000
  N   N11       1.0  0.4465451618318425  0.37890897090794345  0.48220632594263446  1.0000
  N   N12       1.0  0.9439564618501347  0.38957372048191263  0.4866832156165728  1.0000
  O   O1        1.0  0.9041799549100558  0.6862551976093983  0.3648765518167707  1.0000
  O   O2        1.0  0.0645288437935889  0.6826145815510571  0.355147631708789  1.0000
  O   O3        1.0  0.9181843074693814  0.3049937811361687  0.751464103699071  1.0000
  O   O4        1.0  0.07705197296051837  0.32653805083737103  0.763090099648288  1.0000
  O   O5        1.0  0.9296562060793147  0.8176752443968456  0.35458797294167255  1.0000
  O   O6        1.0  0.08971100345108597  0.8143429963339911  0.3654488316704274  1.0000
  O   O7        1.0  0.9261526247273006  0.1733517736966732  0.7638064282724528  1.0000
  O   O8        1.0  0.08425444575156148  0.19531429444148068  0.7504338577077335  1.0000
  O   O9        1.0  0.09582089135640358  0.3137434048109711  0.8648765424704197  1.0000
  O   O10       1.0  0.9354716573287901  0.31738682493330117  0.8551483008335625  1.0000
  O   O11       1.0  0.08181214807560618  0.6950061784801066  0.2514626952576934  1.0000
  O   O12       1.0  0.9229428003021594  0.6734605091330295  0.2630900554236675  1.0000
  O   O13       1.0  0.07034340931918588  0.1823242896392756  0.8545872652360985  1.0000
  O   O14       1.0  0.9102901481638737  0.18565888246618556  0.8654502041646097  1.0000
  O   O15       1.0  0.0738437907858227  0.8266491269430745  0.26380510176637273  1.0000
  O   O16       1.0  0.9157434034244432  0.8046851970123967  0.2504335426216144  1.0000
  O   O17       1.0  0.22872601448197824  0.048542826714793784  0.5355531192285738  1.0000
  O   O18       1.0  0.39037583303682044  0.04733413479952729  0.5325474474101739  1.0000
  O   O19       1.0  0.22614738621243183  0.6779698526945381  0.9347294546862203  1.0000
  O   O20       1.0  0.3875477678839942  0.6780111738548911  0.9276116486768659  1.0000
  O   O21       1.0  0.22889460175837675  0.18217311519437368  0.5382707289881311  1.0000
  O   O22       1.0  0.39071778210437447  0.1827138890989914  0.540733526892872  1.0000
  O   O23       1.0  0.21753574031531284  0.5462273087334709  0.9338331597419157  1.0000
  O   O24       1.0  0.3780087510033993  0.5447942151040621  0.9435408482195344  1.0000
  O   O25       1.0  0.2263751433990677  0.6777787655974095  0.03869223068379311  1.0000
  O   O26       1.0  0.3854932984104379  0.7001995454724649  0.027865902274335507  1.0000
  O   O27       1.0  0.22063086083684869  0.04724438664102589  0.43298925675462396  1.0000
  O   O28       1.0  0.382085579049665  0.0649499216431195  0.4305186896190137  1.0000
  O   O29       1.0  0.23011857884590367  0.5422682862360587  0.036218671619522504  1.0000
  O   O30       1.0  0.3892503388834284  0.5677770199299985  0.04296298010426371  1.0000
  O   O31       1.0  0.2400946350001333  0.17944720102394032  0.4333167751419752  1.0000
  O   O32       1.0  0.40109250609781794  0.19683674154009623  0.4401732890563039  1.0000
  O   O33       1.0  0.7712714035501804  0.9514584495552113  0.03555078461641159  1.0000
  O   O34       1.0  0.609622910306399  0.9526657364688303  0.032548328380706  1.0000
  O   O35       1.0  0.773855942587417  0.32202503443316743  0.4347324288331579  1.0000
  O   O36       1.0  0.6124558556513761  0.3219935387082842  0.4276118760516638  1.0000
  O   O37       1.0  0.7711082748605234  0.8178258231644051  0.0382714880255293  1.0000
  O   O38       1.0  0.6092851577260913  0.8172859862963048  0.0407350465469705  1.0000
  O   O39       1.0  0.7824632713638234  0.4537671091870123  0.43383056336195847  1.0000
  O   O40       1.0  0.6219927429321073  0.4552123755616506  0.44354426978853206  1.0000
  O   O41       1.0  0.7736272819959563  0.3222229809218505  0.5386940136581302  1.0000
  O   O42       1.0  0.614511114300889  0.29979938896125446  0.527864922190858  1.0000
  O   O43       1.0  0.7793710143507226  0.952750031487817  0.9329874636574759  1.0000
  O   O44       1.0  0.6179139120148205  0.9350491751527484  0.9305197520906676  1.0000
  O   O45       1.0  0.769882267167723  0.45773158692482235  0.5362163197710288  1.0000
  O   O46       1.0  0.6107511058244766  0.4322223880694337  0.5429645262374763  1.0000
  O   O47       1.0  0.7599064785946295  0.8205467490794334  0.9333188265952331  1.0000
  O   O48       1.0  0.5989076422203536  0.8031628273105009  0.9401743378584939  1.0000
