data_image0
_chemical_formula_structural       Br2C54H26N16Zn4
_chemical_formula_sum              "Br2 C54 H26 N16 Zn4"
_cell_length_a       18.369193164826143
_cell_length_b       18.36790424067023
_cell_length_c       18.403180885149837
_cell_angle_alpha    111.80187851726146
_cell_angle_beta     111.71666128413794
_cell_angle_gamma    97.3403742334656

_space_group_name_H-M_alt    "P 1"
_space_group_IT_number       1

loop_
  _space_group_symop_operation_xyz
  'x, y, z'

loop_
  _atom_site_type_symbol
  _atom_site_label
  _atom_site_symmetry_multiplicity
  _atom_site_fract_x
  _atom_site_fract_y
  _atom_site_fract_z
  _atom_site_occupancy
  Br  Br1       1.0  0.18445101493424695  0.3927560408410715  0.7470815673472303  1.0000
  Br  Br2       1.0  0.39313899731828866  0.1845697033612623  0.7468418804826629  1.0000
  C   C1        1.0  0.5653694778589936  0.26123142322274634  0.9525257694135406  1.0000
  C   C2        1.0  0.26121834180199943  0.5654705976886094  0.9525876007484015  1.0000
  C   C3        1.0  0.7275304394401302  0.5797463335794647  0.060515655283282364  1.0000
  C   C4        1.0  0.5797334068822194  0.7275420524050634  0.0604786880465654  1.0000
  C   C5        1.0  0.5048631812982761  0.65884864501453  0.9156493239187217  1.0000
  C   C6        1.0  0.6590382316001636  0.5048237124577856  0.9156632870416106  1.0000
  C   C7        1.0  0.41577761245671485  0.415930585950072  0.6515738597999815  1.0000
  C   C8        1.0  0.7480148045148096  0.7481027075432539  0.2892932199703821  1.0000
  C   C9        1.0  0.736995047059004  0.5594772141521747  0.9833306322256377  1.0000
  C   C10       1.0  0.559511775536208  0.7368825720171446  0.9832757444332288  1.0000
  C   C11       1.0  0.004375803633145388  0.09573062264785649  0.531525806747247  1.0000
  C   C12       1.0  0.09604714690131287  0.00395439335801482  0.5307417132928905  1.0000
  C   C13       1.0  0.01933394539310732  0.9274466162135582  0.46798235367906926  1.0000
  C   C14       1.0  0.9277039190173324  0.01926632808385168  0.4682992849938329  1.0000
  C   C15       1.0  0.8173140915108232  0.8173594538371918  0.32760339001396943  1.0000
  C   C16       1.0  0.07966587323932832  0.07953135141405453  0.5164911400858188  1.0000
  C   C17       1.0  0.9491795953117617  0.9490694539364317  0.4093318818511024  1.0000
  C   C18       1.0  0.3343920316092196  0.6522073876291901  0.09394520405586365  1.0000
  C   C19       1.0  0.6521055820021502  0.33453127123155485  0.09381256780809366  1.0000
  C   C20       1.0  0.9812557438438602  0.981263984035451  0.3565140560661746  1.0000
  C   C21       1.0  0.058498943299206  0.05886922616706872  0.4201017762041205  1.0000
  C   C22       1.0  0.8765818596663167  0.8765076177989077  0.35663608664090424  1.0000
  C   C23       1.0  0.15100300711304726  0.15087352398907683  0.583090872017813  1.0000
  C   C24       1.0  0.20628708783272728  0.20612322891305013  0.651332503221184  1.0000
  C   C25       1.0  0.17784777836282462  0.620288036580142  0.02832372093521942  1.0000
  C   C26       1.0  0.6200923819482397  0.17785282547806266  0.02819978491469751  1.0000
  C   C27       1.0  0.10804794791497602  0.6185159276113483  0.02053713967725922  1.0000
  C   C28       1.0  0.6184236764953184  0.10804367659959996  0.020421896447281436  1.0000
  C   C29       1.0  0.031242865596937057  0.6141758946992298  0.010233870577899016  1.0000
  C   C30       1.0  0.6142343800033813  0.031250939700804406  0.010248783089586728  1.0000
  C   C31       1.0  0.9594204484632978  0.6069562277674266  0.9986968084182876  1.0000
  C   C32       1.0  0.6070616312135682  0.9594001021606646  0.9987043306604519  1.0000
  C   C33       1.0  0.8820176680470692  0.5956261032026193  0.9883278835984796  1.0000
  C   C34       1.0  0.5957518277432711  0.8819710796579304  0.9883622485329228  1.0000
  C   C35       1.0  0.49477333456478323  0.41418286644380253  0.14783827866909158  1.0000
  C   C36       1.0  0.41417180629846934  0.4948316330988549  0.14798003950417654  1.0000
  C   C37       1.0  0.8115347140255834  0.5812162455133889  0.9807041911414273  1.0000
  C   C38       1.0  0.5812215298062853  0.8114289319706817  0.9806201298827518  1.0000
  C   C39       1.0  0.40426144991049273  0.40438717925571427  0.5681187460364825  1.0000
  C   C40       1.0  0.3962993202403949  0.39637397168269234  0.4958670559425329  1.0000
  C   C41       1.0  0.3916618389875168  0.3916883493476252  0.41976538052538376  1.0000
  C   C42       1.0  0.3913029801133375  0.39145140014335317  0.3523073402053357  1.0000
  C   C43       1.0  0.39735122317324556  0.3974471549439614  0.284191283160304  1.0000
  C   C44       1.0  0.409139376436599  0.40914929331876976  0.22721129924749328  1.0000
  C   C45       1.0  0.2684578895371317  0.3473120336089438  0.7832583545213654  1.0000
  C   C46       1.0  0.34745156900005003  0.268416289749311  0.7831044219040493  1.0000
  C   C47       1.0  0.6143677411366395  0.2525667727180833  0.02671205129463771  1.0000
  C   C48       1.0  0.2525270870669943  0.6145357422297837  0.02682899967365428  1.0000
  C   C49       1.0  0.4337777952251187  0.4337977660267074  0.17420376860521722  1.0000
  C   C50       1.0  0.26864704004258033  0.26850627557585943  0.7317282281105761  1.0000
  C   C51       1.0  0.46411948853674545  0.38388927492650293  0.7043482221647325  1.0000
  C   C52       1.0  0.38355915680997305  0.46414779008757306  0.7043554729512281  1.0000
  C   C53       1.0  0.6647626963340655  0.7448529431247342  0.2627993838961304  1.0000
  C   C54       1.0  0.744653689209123  0.6647846699057782  0.26280202449226664  1.0000
  H   H1        1.0  0.5252092687987114  0.21318193032660576  0.8866148086459946  1.0000
  H   H2        1.0  0.21325918918790876  0.5253303084931674  0.8866385072721173  1.0000
  H   H3        1.0  0.01960341230711291  0.11183761980045402  0.6002729491759382  1.0000
  H   H4        1.0  0.1130366255409996  0.018938857448581835  0.5996054615443144  1.0000
  H   H5        1.0  0.14970761374475935  0.9936500322231512  0.5201451402037877  1.0000
  H   H6        1.0  0.9942559935091352  0.14988592076335316  0.5219851458953074  1.0000
  H   H7        1.0  0.03336995921910104  0.8774123663884695  0.42500392612149807  1.0000
  H   H8        1.0  0.8780510687827884  0.03373358461556123  0.42553533889845596  1.0000
  H   H9        1.0  0.047663622702650295  0.11227018001319072  0.40920478627720774  1.0000
  H   H10       1.0  0.1118196349291551  0.04854800472637785  0.4087511491452034  1.0000
  H   H11       1.0  0.9319380592954398  0.9957946916108328  0.31345877933820515  1.0000
  H   H12       1.0  0.9960871136481865  0.9320273508001478  0.31359358566973555  1.0000
  H   H13       1.0  0.3571253791312544  0.6949111407051806  0.16268604674917242  1.0000
  H   H14       1.0  0.6947903150246402  0.3572496586713288  0.16251336861933646  1.0000
  H   H15       1.0  0.5271855816262414  0.36989342226508637  0.15490971131969636  1.0000
  H   H16       1.0  0.36990189282206387  0.5272548088965012  0.15514478038369356  1.0000
  H   H17       1.0  0.4999452695384362  0.3430153776578564  0.6894074067831966  1.0000
  H   H18       1.0  0.34256736143169775  0.49983755727415535  0.6894122950644717  1.0000
  H   H19       1.0  0.6387940726766956  0.7955524541258117  0.2717374063093984  1.0000
  H   H20       1.0  0.7952483587724329  0.6386956578404795  0.2717353315056741  1.0000
  H   H21       1.0  0.7722304164841346  0.6212609419189339  0.12777068790310872  1.0000
  H   H22       1.0  0.621247895285698  0.7723304516633364  0.12770586565311967  1.0000
  H   H23       1.0  0.4748320735268123  0.637546233211623  0.8452215738732464  1.0000
  H   H24       1.0  0.637812219567614  0.47471545010004246  0.8452349158401163  1.0000
  H   H25       1.0  0.9031719218263061  0.9965059274932673  0.5045864573536321  1.0000
  H   H26       1.0  0.9968101235843887  0.9033086642528051  0.5046725213022472  1.0000
  N   N1        1.0  0.5732257535311546  0.3408705343415904  0.9734714025134679  1.0000
  N   N2        1.0  0.34081300538174725  0.5732347962493592  0.9735349326130561  1.0000
  N   N3        1.0  0.38645143788284764  0.6275839492112357  0.06158356886377462  1.0000
  N   N4        1.0  0.6275893890679994  0.3865930921840148  0.06150040437768215  1.0000
  N   N5        1.0  0.5110203299199654  0.4616309830865364  0.11150186029899341  1.0000
  N   N6        1.0  0.4615902451647641  0.511104104398605  0.11159723907855583  1.0000
  N   N7        1.0  0.33939702570580715  0.3896250974068779  0.8581046637697157  1.0000
  N   N8        1.0  0.3896562680220512  0.33940673221490425  0.8580048485682995  1.0000
  N   N9        1.0  0.46069723878130725  0.411027253596629  0.7811123899826384  1.0000
  N   N10       1.0  0.41071499069894196  0.46081572277086036  0.78111476175107  1.0000
  N   N11       1.0  0.6160413904150843  0.6662356923554998  0.22161409409331168  1.0000
  N   N12       1.0  0.6660400504408838  0.6161327025839114  0.22162338948960775  1.0000
  N   N13       1.0  0.6513513957882252  0.538538755579012  0.03995940471709495  1.0000
  N   N14       1.0  0.538481735765579  0.6513872443959345  0.03998223008911594  1.0000
  N   N15       1.0  0.4926316013003953  0.6091380654857304  0.9512606167684369  1.0000
  N   N16       1.0  0.6092283578252163  0.4926488039378612  0.9512269750580131  1.0000
  Zn  Zn1       1.0  0.5117439746387547  0.39209507214520317  0.8944841422243428  1.0000
  Zn  Zn2       1.0  0.39200138102557935  0.5118000658034135  0.8946101861350045  1.0000
  Zn  Zn3       1.0  0.5019798458060264  0.6206028086247458  0.1175103185464082  1.0000
  Zn  Zn4       1.0  0.6204529149198026  0.5021200480741332  0.11744079100935076  1.0000
