data_image0
_chemical_formula_structural       Ag4C56H32N8O32Yb4
_chemical_formula_sum              "Ag4 C56 H32 N8 O32 Yb4"
_cell_length_a       9.372384933174883
_cell_length_b       11.971610091077203
_cell_length_c       16.465075597900647
_cell_angle_alpha    97.06352400530614
_cell_angle_beta     89.9967965148719
_cell_angle_gamma    113.0245218900512

_space_group_name_H-M_alt    "P 1"
_space_group_IT_number       1

loop_
  _space_group_symop_operation_xyz
  'x, y, z'

loop_
  _atom_site_type_symbol
  _atom_site_label
  _atom_site_symmetry_multiplicity
  _atom_site_fract_x
  _atom_site_fract_y
  _atom_site_fract_z
  _atom_site_occupancy
  Ag  Ag1       1.0  0.7818184887221381  0.32455040051243605  0.5839680131734897  1.0000
  Ag  Ag2       1.0  0.45773640779585634  0.6753385138837302  0.9160143576797356  1.0000
  Ag  Ag3       1.0  0.21818111882760863  0.6754514880869706  0.416033999647354  1.0000
  Ag  Ag4       1.0  0.5422579834836795  0.3246550721819119  0.08398209955991831  1.0000
  C   C1        1.0  0.2103154523928268  0.3670289021532867  0.5378734612619385  1.0000
  C   C2        1.0  0.8431282551480521  0.6330402822522743  0.9623484104533379  1.0000
  C   C3        1.0  0.7896863328069444  0.6329709390067394  0.46212731576734023  1.0000
  C   C4        1.0  0.15687155495118082  0.3669577418986449  0.03765235654566372  1.0000
  C   C5        1.0  0.27017244676626023  0.12818775679187414  0.3154073226811606  1.0000
  C   C6        1.0  0.1425486151234665  0.8723442213858448  0.18472197308738467  1.0000
  C   C7        1.0  0.7298274427198452  0.8718146957235292  0.6845928567146945  1.0000
  C   C8        1.0  0.8574504235359371  0.12765652884781534  0.8152788090657029  1.0000
  C   C9        1.0  0.17343255315349637  0.052139182465595006  0.377863336848968  1.0000
  C   C10       1.0  0.121541234720496  0.9481936648821261  0.12220573797732474  1.0000
  C   C11       1.0  0.8265702196506554  0.947866904230615  0.6221368626384705  1.0000
  C   C12       1.0  0.8784593958283368  0.051810270668880866  0.8777975105419462  1.0000
  C   C13       1.0  0.4195989480565104  0.13458895268755103  0.2993884342085239  1.0000
  C   C14       1.0  0.28555297115518374  0.8658692657005599  0.2006783172482757  1.0000
  C   C15       1.0  0.5804006021024364  0.8654128210219056  0.7006129657937665  1.0000
  C   C16       1.0  0.7144444891216326  0.13413046121988972  0.7993218470866454  1.0000
  C   C17       1.0  0.11241592333215071  0.23180726960127632  0.5252180620837238  1.0000
  C   C18       1.0  0.8806892441483144  0.7683289398135854  0.9749605850871678  1.0000
  C   C19       1.0  0.8875888244643305  0.7681899600407646  0.4747833125479348  1.0000
  C   C20       1.0  0.11931124962285372  0.23167045248298018  0.025042638216703515  1.0000
  C   C21       1.0  0.1710773593148717  0.4443350330036184  0.4939810704856671  1.0000
  C   C22       1.0  0.7264695487047135  0.5558349730810334  0.006219446839928403  1.0000
  C   C23       1.0  0.8289232442202632  0.5556645785390941  0.506018480937563  1.0000
  C   C24       1.0  0.27353273448775894  0.4441637295506454  0.9937800994905435  1.0000
  C   C25       1.0  0.3843167992363945  0.613984774855254  0.5518895156870586  1.0000
  C   C26       1.0  0.7698297475351483  0.3860301241087499  0.9482330966288619  1.0000
  C   C27       1.0  0.6156810577583728  0.3860157457610995  0.44811004085996614  1.0000
  C   C28       1.0  0.23016809595277718  0.613968234503453  0.05176461137014601  1.0000
  C   C29       1.0  0.4298300140010127  0.5429152697922249  0.5986176949788986  1.0000
  C   C30       1.0  0.8864761603556205  0.4570040828189335  0.9015193948789249  1.0000
  C   C31       1.0  0.5701726220254599  0.4570862736495513  0.4013824792931474  1.0000
  C   C32       1.0  0.11352545267175883  0.5429954136712354  0.09847954369470102  1.0000
  C   C33       1.0  0.3438007107774154  0.4169425093012221  0.5904510106013563  1.0000
  C   C34       1.0  0.9264940038176805  0.5829945401305923  0.909691150668316  1.0000
  C   C35       1.0  0.6562024232417586  0.5830578956121997  0.40954793297188286  1.0000
  C   C36       1.0  0.07350513611646656  0.4170042778788173  0.09030900857384691  1.0000
  C   C37       1.0  0.29704092069169974  0.2583337955355844  0.21134234034096275  1.0000
  C   C38       1.0  0.03942009907189706  0.742172894637889  0.28879080637992177  1.0000
  C   C39       1.0  0.7029610316628379  0.741666379760538  0.7886553776262206  1.0000
  C   C40       1.0  0.960580063861336  0.2578279703231203  0.7112105885606683  1.0000
  C   C41       1.0  0.5346567845263478  0.06989331217405245  0.5112795050947982  1.0000
  C   C42       1.0  0.46483461869326  0.9300794067564482  0.9886954217221491  1.0000
  C   C43       1.0  0.4653491889269219  0.9301127740343772  0.4887206942994952  1.0000
  C   C44       1.0  0.5351619552539263  0.06991214240356669  0.011304697243687703  1.0000
  C   C45       1.0  0.4989225296300291  0.1992927822900015  0.23745028727597636  1.0000
  C   C46       1.0  0.3002234767976759  0.8010968523597055  0.26257608448585773  1.0000
  C   C47       1.0  0.5010776197963622  0.8007059206668644  0.7625492591165826  1.0000
  C   C48       1.0  0.6997747549189698  0.1989001484780033  0.7374240646949847  1.0000
  C   C49       1.0  0.20978361204208806  0.19384153685839314  0.27117352958023844  1.0000
  C   C50       1.0  0.016629239234035295  0.8067326640005845  0.2290010566800548  1.0000
  C   C51       1.0  0.7902177984358049  0.8061618240802703  0.7288266548152226  1.0000
  C   C52       1.0  0.9833699142069608  0.19326831601297567  0.7710009511101322  1.0000
  C   C53       1.0  0.20798308511267977  0.9290958934586153  0.7441254426138146  1.0000
  C   C54       1.0  0.27890754857487116  0.07054556927851514  0.7557433659008057  1.0000
  C   C55       1.0  0.7920155079272037  0.0709060996595881  0.2558722855388852  1.0000
  C   C56       1.0  0.7210907271339339  0.9294600585082763  0.24425438243662267  1.0000
  H   H1        1.0  0.47283802849516116  0.08766267926617391  0.3339320776393252  1.0000
  H   H2        1.0  0.3856936707950496  0.912762304550938  0.16614056259120258  1.0000
  H   H3        1.0  0.5271589337889537  0.9123381861826233  0.6660693173944028  1.0000
  H   H4        1.0  0.614306421240542  0.08723628351597774  0.8338583709828102  1.0000
  H   H5        1.0  0.06843810404912186  0.4064564646108624  0.4521110222927691  1.0000
  H   H6        1.0  0.661715235089332  0.5937782395977321  0.04809519616324561  1.0000
  H   H7        1.0  0.9315613667229526  0.5935408807341032  0.547890965312682  1.0000
  H   H8        1.0  0.33828360940160707  0.40621785249153675  0.9519049479558891  1.0000
  H   H9        1.0  0.44967283740624  0.7123225853384768  0.5548369629263166  1.0000
  H   H10       1.0  0.7367660611723255  0.28767872312365483  0.9452675204004922  1.0000
  H   H11       1.0  0.5503259142991794  0.2876775904454263  0.44516075513401204  1.0000
  H   H12       1.0  0.2632338013000819  0.7123194053834608  0.05472896189931483  1.0000
  H   H13       1.0  0.5333566613148406  0.5865783930918411  0.6396058393581614  1.0000
  H   H14       1.0  0.9462752509497819  0.4132708654502579  0.860527470903236  1.0000
  H   H15       1.0  0.4666473370378839  0.41342587610748194  0.36039435000586223  1.0000
  H   H16       1.0  0.053725136529017295  0.5867304485368051  0.13947147779380495  1.0000
  H   H17       1.0  0.376739735186689  0.35592003188751414  0.6232096038771432  1.0000
  H   H18       1.0  0.020284308479375658  0.6439617715534781  0.876844283987616  1.0000
  H   H19       1.0  0.623261552020388  0.6440809478008518  0.3767924038509421  1.0000
  H   H20       1.0  0.9797148449616133  0.356039208460075  0.12315772380256365  1.0000
  H   H21       1.0  0.25267125651183164  0.30956957255475004  0.17554045802277335  1.0000
  H   H22       1.0  0.9438625173882756  0.6909633332388054  0.3246126094414451  1.0000
  H   H23       1.0  0.747328663351368  0.6904286708423157  0.8244566370955868  1.0000
  H   H24       1.0  0.056137090161470816  0.30903855536060126  0.6753894033793987  1.0000
  H   H25       1.0  0.6131026205862257  0.20228407923971053  0.22131857834754248  1.0000
  H   H26       1.0  0.4113804533680537  0.7980042958386804  0.2786396460426844  1.0000
  H   H27       1.0  0.38689713212220783  0.7977138300212588  0.778681575832913  1.0000
  H   H28       1.0  0.5886193432243304  0.20199156630808798  0.7213592724083002  1.0000
  H   H29       1.0  0.09471306182778251  0.192581959699929  0.2822588616460991  1.0000
  H   H30       1.0  0.9028768235358626  0.8080857311624922  0.21799240265223577  1.0000
  H   H31       1.0  0.9052861001024369  0.8074211717840215  0.7177400971743568  1.0000
  H   H32       1.0  0.09712120563129645  0.1919151341237112  0.7820089923504485  1.0000
  N   N1        1.0  0.2578558747248678  0.5653787003613856  0.4995424724708572  1.0000
  N   N2        1.0  0.6920478325850113  0.43473751642665803  0.0005864781024627011  1.0000
  N   N3        1.0  0.7421418674883071  0.4346215904750608  0.5004558584390683  1.0000
  N   N4        1.0  0.307951077785944  0.5652608420229512  0.9994112298655013  1.0000
  N   N5        1.0  0.43785366636759443  0.25927791839788467  0.19297874170021606  1.0000
  N   N6        1.0  0.1792409132297621  0.7411018932415914  0.3070655753467194  1.0000
  N   N7        1.0  0.5621474351602415  0.7407205546164873  0.8070195790242  1.0000
  N   N8        1.0  0.8207578434932828  0.25889829307606504  0.6929370402313567  1.0000
  O   O1        1.0  0.03191095371988691  0.03674405466788503  0.3769370667000944  1.0000
  O   O2        1.0  0.995429775080865  0.9636218454986648  0.12325291223867657  1.0000
  O   O3        1.0  0.9680891164278336  0.9632608939877657  0.6230619021816823  1.0000
  O   O4        1.0  0.004569449257772422  0.03638141140898916  0.8767515569180805  1.0000
  O   O5        1.0  0.9755299114795264  0.1982038981135759  0.4945180108656689  1.0000
  O   O6        1.0  0.777650121645692  0.8021439221946094  0.0057958337067063005  1.0000
  O   O7        1.0  0.02447231933976463  0.8017947001618991  0.5054858201639976  1.0000
  O   O8        1.0  0.2223523911099647  0.19785523999686216  0.9942061638979712  1.0000
  O   O9        1.0  0.17633985260097526  0.16352363723584773  0.5456195876676092  1.0000
  O   O10       1.0  0.012797908849158431  0.8363517040143194  0.9543434134639528  1.0000
  O   O11       1.0  0.8236743165894611  0.8364817688658731  0.45438183208474936  1.0000
  O   O12       1.0  0.987204360836465  0.16364483661320858  0.04565428431849482  1.0000
  O   O13       1.0  0.240647286250777  0.011049773762387449  0.4259461784589933  1.0000
  O   O14       1.0  0.22956585947051156  0.9890697238215009  0.07394534949784061  1.0000
  O   O15       1.0  0.7593484369779092  0.9889507471791532  0.5740533781501329  1.0000
  O   O16       1.0  0.7704313053630971  0.010927277178808554  0.9260547997140525  1.0000
  O   O17       1.0  0.46176823574000286  0.11643675422543254  0.5593776951392615  1.0000
  O   O18       1.0  0.34558105607824535  0.883555208176162  0.9404766580164083  1.0000
  O   O19       1.0  0.5382358064966724  0.8835654678596965  0.4406212584952983  1.0000
  O   O20       1.0  0.6544097648479125  0.11644190868966581  0.05952410420032093  1.0000
  O   O21       1.0  0.6613828327182601  0.1281091866960082  0.479677435765332  1.0000
  O   O22       1.0  0.5333692380291879  0.8718966651978448  0.020330730082797305  1.0000
  O   O23       1.0  0.33862575898693603  0.8718935986547364  0.5203196843200433  1.0000
  O   O24       1.0  0.4666253963203815  0.1280995424317481  0.9796700269790792  1.0000
  O   O25       1.0  0.19570334420485117  0.875611898775851  0.6714671045329583  1.0000
  O   O26       1.0  0.3202629500563035  0.12401852133051253  0.8283898018495537  1.0000
  O   O27       1.0  0.80429501078261  0.12438748331215523  0.32853122131525964  1.0000
  O   O28       1.0  0.6797291319213628  0.8759832535171057  0.17161159837007042  1.0000
  O   O29       1.0  0.16827545829654866  0.8786817258658884  0.8082274965290213  1.0000
  O   O30       1.0  0.2897177740318782  0.12100722397050842  0.6916589210231907  1.0000
  O   O31       1.0  0.8317217150262834  0.1213174266048114  0.19176960371314078  1.0000
  O   O32       1.0  0.7102818723841936  0.878992606980951  0.30833695855043447  1.0000
  Yb  Yb1       1.0  0.19936776077577184  0.9900955320803533  0.5674523536984212  1.0000
  Yb  Yb2       1.0  0.20922740134228957  0.009638733316720102  0.9324191822459302  1.0000
  Yb  Yb3       1.0  0.8006383139522412  0.009908621903825628  0.43254722278496177  1.0000
  Yb  Yb4       1.0  0.7907716238102652  0.9903598549127892  0.06757975135913342  1.0000
