data_image0
_chemical_formula_structural       Al4C36H4N12O28
_chemical_formula_sum              "Al4 C36 H4 N12 O28"
_cell_length_a       6.683974712850887
_cell_length_b       16.027958152307626
_cell_length_c       19.151402312661897
_cell_angle_alpha    100.90657600387871
_cell_angle_beta     99.98471346220678
_cell_angle_gamma    102.09267489597416

_space_group_name_H-M_alt    "P 1"
_space_group_IT_number       1

loop_
  _space_group_symop_operation_xyz
  'x, y, z'

loop_
  _atom_site_type_symbol
  _atom_site_label
  _atom_site_symmetry_multiplicity
  _atom_site_fract_x
  _atom_site_fract_y
  _atom_site_fract_z
  _atom_site_occupancy
  Al  Al1       1.0  0.8487736383105116  0.24863405290874147  0.24793465760789965  1.0000
  Al  Al2       1.0  0.1443541803919859  0.7507322694190609  0.7516735632120588  1.0000
  Al  Al3       1.0  0.35227408243831343  0.2516500339383613  0.2518777594711139  1.0000
  Al  Al4       1.0  0.6416148929803355  0.7487837309320471  0.7481811370451299  1.0000
  C   C1        1.0  0.09436315797049123  0.15623812904421197  0.33391842932460497  1.0000
  C   C2        1.0  0.8942608746454114  0.8379366790171334  0.6614782171486341  1.0000
  C   C3        1.0  0.6064659102822602  0.34409904846427253  0.16595524539146572  1.0000
  C   C4        1.0  0.3939736388300543  0.6617220599119946  0.8384366763916022  1.0000
  C   C5        1.0  0.9911231823071346  0.13927059921184082  0.137516524903333  1.0000
  C   C6        1.0  0.0036630052728626535  0.8694596263048243  0.8569477375582298  1.0000
  C   C7        1.0  0.7134109195283925  0.36091049492893773  0.36240531097313783  1.0000
  C   C8        1.0  0.2773578955134894  0.6300208312758645  0.642990720098034  1.0000
  C   C9        1.0  0.7985605660489128  0.4313162617047299  0.43144913827576675  1.0000
  C   C10       1.0  0.19664635455477955  0.5572320190650688  0.5748017568203424  1.0000
  C   C11       1.0  0.9356892371003981  0.06865962310018153  0.06853466745189961  1.0000
  C   C12       1.0  0.0639717958079514  0.9422548062106486  0.9251538797755217  1.0000
  C   C13       1.0  0.9875406024636033  0.4898594764464335  0.446315197275112  1.0000
  C   C14       1.0  0.06674689095905233  0.5624642367722715  0.5141596699845152  1.0000
  C   C15       1.0  0.05033892420599529  0.009841309017566911  0.05358797813759251  1.0000
  C   C16       1.0  0.9887797382060127  0.9371834274011238  0.9857653826055215  1.0000
  C   C17       1.0  0.5976075596454534  0.3909783689434293  0.10871371724784497  1.0000
  C   C18       1.0  0.4004885173830742  0.6123799444467297  0.8936782091943415  1.0000
  C   C19       1.0  0.09667743834958743  0.1096769293672254  0.39136822837808444  1.0000
  C   C20       1.0  0.89523821072175  0.8875087760228979  0.6063799490158814  1.0000
  C   C21       1.0  0.5722672355595504  0.47583571589825624  0.004525160661437223  1.0000
  C   C22       1.0  0.425429429712466  0.5253531887585159  0.9963353826440059  1.0000
  C   C23       1.0  0.09098623716757699  0.024868059373730437  0.4956149311594942  1.0000
  C   C24       1.0  0.9032619753723594  0.9749197307191297  0.5039112442586033  1.0000
  C   C25       1.0  0.4092530466223107  0.5716903380334343  0.941219939590937  1.0000
  C   C26       1.0  0.5887269524242028  0.4299904526871928  0.06001157870207412  1.0000
  C   C27       1.0  0.8967669029989336  0.9284051143240648  0.5589453863566405  1.0000
  C   C28       1.0  0.0974581705881477  0.07077315783755019  0.440159753483215  1.0000
  C   C29       1.0  0.0025818072766269754  0.6410804712162845  0.5101825918376762  1.0000
  C   C30       1.0  0.12058041576517547  0.4895446590560654  0.3956537729786191  1.0000
  C   C31       1.0  0.8489273691286952  0.8587523892907568  0.9897131542546874  1.0000
  C   C32       1.0  0.23392046973399516  0.010148603974627706  0.10432465237020241  1.0000
  C   C33       1.0  0.2869117464384274  0.5305862087419514  0.045059190522494116  1.0000
  C   C34       1.0  0.7104080958729354  0.47103408832138893  0.9555810455747675  1.0000
  C   C35       1.0  0.7105820026077864  0.9694447292572124  0.45536562573020223  1.0000
  C   C36       1.0  0.28296124567173553  0.030018415001656383  0.544426404846952  1.0000
  H   H1        1.0  0.16765833916916506  0.3663708392678516  0.2721735368770695  1.0000
  H   H2        1.0  0.8458343991495171  0.6433381294922712  0.7627616111026613  1.0000
  H   H3        1.0  0.528940142676845  0.1338898779773672  0.2280090258922982  1.0000
  H   H4        1.0  0.43997708119337636  0.8563054951841383  0.7372839021065192  1.0000
  N   N1        1.0  0.9486153261193945  0.7043761312669972  0.50328712288605  1.0000
  N   N2        1.0  0.23650505423115925  0.4944075471444054  0.35654582911177374  1.0000
  N   N3        1.0  0.7378297606805689  0.7955701769500365  0.9966023683370298  1.0000
  N   N4        1.0  0.38356086722053834  0.005308819477321025  0.14356232433112842  1.0000
  N   N5        1.0  0.2511926690036006  0.4740834120015905  0.5801454769638852  1.0000
  N   N6        1.0  0.6776234945491169  0.4293818458150866  0.48837416990659227  1.0000
  N   N7        1.0  0.19711590497563963  0.02529352993630626  0.9198355407623781  1.0000
  N   N8        1.0  0.7601308717953471  0.0708553478486778  0.011791843642434704  1.0000
  N   N9        1.0  0.17163269174324103  0.5360444054377425  0.08413927042914084  1.0000
  N   N10       1.0  0.8241809210477624  0.46652408235242165  0.9158663261270094  1.0000
  N   N11       1.0  0.5506739173581392  0.9638379091465907  0.41641895976053434  1.0000
  N   N12       1.0  0.4410230651994738  0.0347758655859637  0.5840920407562963  1.0000
  O   O1        1.0  0.18532675869991516  0.1660664907691611  0.16553056044234896  1.0000
  O   O2        1.0  0.8087289871921329  0.8433027562867041  0.8299653631776921  1.0000
  O   O3        1.0  0.852494743854578  0.3352418187809079  0.3333570120713958  1.0000
  O   O4        1.0  0.13543232755369403  0.6562232400131337  0.6699251210235105  1.0000
  O   O5        1.0  0.9209053540208244  0.17261890060235163  0.3093902832453423  1.0000
  O   O6        1.0  0.06631031437373015  0.820395924396621  0.6860822254828278  1.0000
  O   O7        1.0  0.4427522310978346  0.32880890353772685  0.1916463215521348  1.0000
  O   O8        1.0  0.5591389795334081  0.67922475556518  0.8137903046605858  1.0000
  O   O9        1.0  0.8408892724571827  0.16161450999489801  0.16133935292162252  1.0000
  O   O10       1.0  0.15263745776550766  0.8432908280264828  0.8353119810958989  1.0000
  O   O11       1.0  0.5168379983804525  0.33754836565354657  0.3394480912683449  1.0000
  O   O12       1.0  0.474061537468792  0.6561974569238133  0.6646045311558596  1.0000
  O   O13       1.0  0.777482334049253  0.3232880430475121  0.18542766862253765  1.0000
  O   O14       1.0  0.22330068512546575  0.6828787630237801  0.8186543488150735  1.0000
  O   O15       1.0  0.2652571090590641  0.1756719911556247  0.31312929865653427  1.0000
  O   O16       1.0  0.7219283783129739  0.8165999900051945  0.6811806270197708  1.0000
  O   O17       1.0  0.1298815528038304  0.30244168335831745  0.25816373702438977  1.0000
  O   O18       1.0  0.8657104656318139  0.6977993876175149  0.7466134812825942  1.0000
  O   O19       1.0  0.569050688341072  0.19782387983890715  0.24177645070842152  1.0000
  O   O20       1.0  0.42114266349300794  0.8017259755253369  0.7532484923365887  1.0000
  O   O21       1.0  0.3157239187401969  0.4663842871262889  0.6424521115867634  1.0000
  O   O22       1.0  0.22282802231266874  0.4175863155050408  0.5229141672234192  1.0000
  O   O23       1.0  0.6654069521902385  0.5003638654219884  0.5245329438686355  1.0000
  O   O24       1.0  0.6039698903466899  0.3558230665571288  0.49703395259058414  1.0000
  O   O25       1.0  0.20719250477322498  0.03311325260105512  0.8575357611325103  1.0000
  O   O26       1.0  0.2829007963408044  0.08169780528058371  0.9770687556704304  1.0000
  O   O27       1.0  0.6416035546683856  0.9999051292364739  0.9751369320903791  1.0000
  O   O28       1.0  0.7508962447993567  0.1445690977260057  0.0037438440393060967  1.0000
