data_image0
_chemical_formula_structural       Cd8H144C208S8N32O48
_chemical_formula_sum              "Cd8 H144 C208 S8 N32 O48"
_cell_length_a       13.126496519830042
_cell_length_b       19.0857453967105
_cell_length_c       25.905349322005446
_cell_angle_alpha    89.99995954468895
_cell_angle_beta     89.99994985361417
_cell_angle_gamma    105.3145701906579

_space_group_name_H-M_alt    "P 1"
_space_group_IT_number       1

loop_
  _space_group_symop_operation_xyz
  'x, y, z'

loop_
  _atom_site_type_symbol
  _atom_site_label
  _atom_site_symmetry_multiplicity
  _atom_site_fract_x
  _atom_site_fract_y
  _atom_site_fract_z
  _atom_site_occupancy
  Cd  Cd1       1.0  0.3874169242176606  0.20271253743455733  0.9498882286955138  1.0000
  Cd  Cd2       1.0  0.11258093064935794  0.297285592855566  0.4498861283223263  1.0000
  Cd  Cd3       1.0  0.6125810117918533  0.7972854779326114  0.050114012502810105  1.0000
  Cd  Cd4       1.0  0.8874199120967319  0.7027140567131696  0.5501134107303116  1.0000
  Cd  Cd5       1.0  0.4459185948035795  0.36977772118463287  0.054112564902084194  1.0000
  Cd  Cd6       1.0  0.05408097456469111  0.1302231149764239  0.5541109913468105  1.0000
  Cd  Cd7       1.0  0.5540801672982596  0.6302224671419977  0.9458877461921916  1.0000
  Cd  Cd8       1.0  0.945921043616842  0.8697776225661329  0.44588700362264433  1.0000
  H   H1        1.0  0.7513723381911248  0.4756725157717768  0.9623727556907441  1.0000
  H   H2        1.0  0.7486263395030762  0.024325210487404495  0.4623715119412282  1.0000
  H   H3        1.0  0.2486230250134654  0.5243287515659318  0.0376267833626827  1.0000
  H   H4        1.0  0.25137582149774573  0.9756738988291929  0.5376280271112606  1.0000
  H   H5        1.0  0.9067806809653052  0.5039753784350226  0.9021422964243442  1.0000
  H   H6        1.0  0.5932195955352598  0.9960220539794945  0.40214048515628786  1.0000
  H   H7        1.0  0.09321530180733364  0.49602751862156674  0.097856856607855  1.0000
  H   H8        1.0  0.40678215242135  0.0039759688585406  0.5978582818552667  1.0000
  H   H9        1.0  0.9212780061427424  0.09033154430414919  0.1022825075641975  1.0000
  H   H10       1.0  0.5787199550825336  0.4096666638308193  0.6022803887185263  1.0000
  H   H11       1.0  0.07871985074856996  0.9096702707531749  0.8977185755711616  1.0000
  H   H12       1.0  0.42127894984162856  0.5903318962716708  0.3977187643141776  1.0000
  H   H13       1.0  0.5968162109761297  0.2925310237264754  0.8688500695849158  1.0000
  H   H14       1.0  0.9031844079496026  0.20746737468705587  0.3688505901887851  1.0000
  H   H15       1.0  0.40318615654679496  0.7074686288294031  0.1311498554880473  1.0000
  H   H16       1.0  0.09681567240784275  0.7925322733879697  0.6311489488640234  1.0000
  H   H17       1.0  0.07248793878653001  0.1048521356888727  0.0398222332351423  1.0000
  H   H18       1.0  0.4275132665586129  0.39514492301344006  0.539818809387711  1.0000
  H   H19       1.0  0.92750950506057  0.8951485928898888  0.9601780778592826  1.0000
  H   H20       1.0  0.5724885451016847  0.6048552712903614  0.4601780275199587  1.0000
  H   H21       1.0  0.8611642180949631  0.4784125686222254  0.6368303148399832  1.0000
  H   H22       1.0  0.6388300601587958  0.021586128764923294  0.1368283491843343  1.0000
  H   H23       1.0  0.13883343227294634  0.5215887031950429  0.36317154033687865  1.0000
  H   H24       1.0  0.36116620825588813  0.9784135118418293  0.8631708038486607  1.0000
  H   H25       1.0  0.8745628471431531  0.3954664537348265  0.7105286259362131  1.0000
  H   H26       1.0  0.6254343789335053  0.1045343218566401  0.2105266221876718  1.0000
  H   H27       1.0  0.1254380593027166  0.6045353672973236  0.289472457198471  1.0000
  H   H28       1.0  0.37456382730353255  0.8954664082166132  0.7894725308446056  1.0000
  H   H29       1.0  0.2581534258056379  0.28144393666320155  0.1308840324857883  1.0000
  H   H30       1.0  0.24184458927531693  0.21855516491285695  0.63088194276623  1.0000
  H   H31       1.0  0.7418479091024326  0.7185529996936636  0.8691178226914077  1.0000
  H   H32       1.0  0.7581520921883396  0.7814455621753211  0.36911373608045744  1.0000
  H   H33       1.0  0.026859766553585015  0.1816030286643056  0.2837521511744043  1.0000
  H   H34       1.0  0.47314289275249183  0.3183969625137237  0.7837529940659919  1.0000
  H   H35       1.0  0.9731428711951298  0.8183993385966275  0.7162462298151411  1.0000
  H   H36       1.0  0.5268529626158127  0.6816015916131661  0.2162473170293637  1.0000
  H   H37       1.0  0.13900504711345724  0.215195791602703  0.9508865298754401  1.0000
  H   H38       1.0  0.3609948070340252  0.28480559827266916  0.4508866421100138  1.0000
  H   H39       1.0  0.8609950332444143  0.7848038564725854  0.0491126231567023  1.0000
  H   H40       1.0  0.6390058928910421  0.7151956795209812  0.5491128969422192  1.0000
  H   H41       1.0  0.8100078725832489  0.9252578841219613  0.2711366250555258  1.0000
  H   H42       1.0  0.6899901251830868  0.5747429766611913  0.7711342486506823  1.0000
  H   H43       1.0  0.18998922191943282  0.07474392944165942  0.7288644580800039  1.0000
  H   H44       1.0  0.3100087797402082  0.4252555834407801  0.2288656764233323  1.0000
  H   H45       1.0  0.9940958930810098  0.6642188097469272  0.7318943855212581  1.0000
  H   H46       1.0  0.5059050358019803  0.8357815666090217  0.2318954001771232  1.0000
  H   H47       1.0  0.005905013364426338  0.3357830112849669  0.268107083634078  1.0000
  H   H48       1.0  0.49409733171921033  0.1642180859458193  0.7681060689784687  1.0000
  H   H49       1.0  0.0386306824985709  0.0906621124145417  0.3524835369425645  1.0000
  H   H50       1.0  0.461373347301489  0.4093377892041658  0.8524839507557475  1.0000
  H   H51       1.0  0.9613700174269297  0.9093391653793718  0.6475156160890093  1.0000
  H   H52       1.0  0.5386257641434824  0.590661314136831  0.14751674635939338  1.0000
  H   H53       1.0  0.7525945710033142  0.3172443002642353  0.8100467295631687  1.0000
  H   H54       1.0  0.7474063864441118  0.1827547205684397  0.3100461742935323  1.0000
  H   H55       1.0  0.2474059223979097  0.6827564342890893  0.1899539675512329  1.0000
  H   H56       1.0  0.25259383673435565  0.8172432992816638  0.6899533647596742  1.0000
  H   H57       1.0  0.8017092145506839  0.0144613108606251  0.2007876918274434  1.0000
  H   H58       1.0  0.6982883827347236  0.4855383928612793  0.7007862517318201  1.0000
  H   H59       1.0  0.19828787995329117  0.9855405027037774  0.7992122332461092  1.0000
  H   H60       1.0  0.3017070595893685  0.514459074787048  0.2992132873225941  1.0000
  H   H61       1.0  0.002029600591470221  0.5825087247945149  0.8067756864897788  1.0000
  H   H62       1.0  0.4979722471737066  0.9174930274206406  0.3067756675535094  1.0000
  H   H63       1.0  0.9979733864973428  0.41749255747895836  0.1932257826652446  1.0000
  H   H64       1.0  0.502029977527762  0.08250825335990439  0.6932246435397076  1.0000
  H   H65       1.0  0.10817875719862974  0.2685079758057256  0.1925763467019479  1.0000
  H   H66       1.0  0.3918168322326921  0.2314910382198576  0.6925749556608736  1.0000
  H   H67       1.0  0.891824309007518  0.7314895067770592  0.807427052557358  1.0000
  H   H68       1.0  0.6081740994623814  0.7685085919314716  0.3074234253319901  1.0000
  H   H69       1.0  0.3839855976512609  0.2784275544220449  0.8468932654643311  1.0000
  H   H70       1.0  0.11601401318683462  0.2215707175369275  0.3468935198870113  1.0000
  H   H71       1.0  0.6160120681393906  0.7215677462442326  0.1531043434868735  1.0000
  H   H72       1.0  0.8839872426051941  0.7784300185114076  0.653105247123925  1.0000
  H   H73       1.0  0.9289357305048964  0.2631396165541345  0.865983414349195  1.0000
  H   H74       1.0  0.5710673094249615  0.23686313312957452  0.36598368058437813  1.0000
  H   H75       1.0  0.07106635137382977  0.7368632924502876  0.134018440826253  1.0000
  H   H76       1.0  0.42893429570802505  0.7631365179318265  0.6340174025507254  1.0000
  H   H77       1.0  0.07806432693686825  0.3076705567027603  0.8057026051529945  1.0000
  H   H78       1.0  0.4219384105009425  0.19233374784883484  0.3057019674154873  1.0000
  H   H79       1.0  0.9219374693002393  0.6923356087517687  0.19429886400099153  1.0000
  H   H80       1.0  0.578062781587832  0.8076648167339968  0.6942983436786747  1.0000
  H   H81       1.0  0.2685251003345641  0.3203698842710452  0.7821201715195727  1.0000
  H   H82       1.0  0.2314791511148045  0.1796322835569981  0.2821200109915907  1.0000
  H   H83       1.0  0.7314753930679601  0.6796308502830686  0.2178793675328592  1.0000
  H   H84       1.0  0.7685237722750955  0.8203668272535651  0.7178791420400685  1.0000
  H   H85       1.0  0.6404668259548885  0.21933812524191854  0.9433698233467142  1.0000
  H   H86       1.0  0.8595307826617147  0.2806607100952689  0.44337032445022834  1.0000
  H   H87       1.0  0.35953158680339214  0.7806631480700972  0.0566304877473485  1.0000
  H   H88       1.0  0.14046480248253354  0.7193351293276109  0.5566299866459019  1.0000
  H   H89       1.0  0.19038797009696398  0.35515141779285386  0.0632285032802002  1.0000
  H   H90       1.0  0.3096123411967824  0.14484940758709544  0.5632271946829448  1.0000
  H   H91       1.0  0.8096113478696766  0.6448482287871613  0.9367729658760737  1.0000
  H   H92       1.0  0.6903901691476052  0.8551486167441239  0.4367723443697571  1.0000
  H   H93       1.0  0.5641062153645962  0.245097965777596  0.2249857742738399  1.0000
  H   H94       1.0  0.9358906289114798  0.25490387532992287  0.7249878254492899  1.0000
  H   H95       1.0  0.4358910219608347  0.7549022195621404  0.7750137647794588  1.0000
  H   H96       1.0  0.06411013471510073  0.7450995739281936  0.2750117136023533  1.0000
  H   H97       1.0  0.6890142148205741  0.3643875844668472  0.0596495927638401  1.0000
  H   H98       1.0  0.8109842551445823  0.13561176754966908  0.5596517626472846  1.0000
  H   H99       1.0  0.31098586553557084  0.6356120636073969  0.9403511043509454  1.0000
  H   H100      1.0  0.18901873194596433  0.8643895147248416  0.44034816242510294  1.0000
  H   H101      1.0  0.4201141143662425  0.14070131096083568  0.0582665997304517  1.0000
  H   H102      1.0  0.07988919392044383  0.35929735561174425  0.5582637350651751  1.0000
  H   H103      1.0  0.5798852036008313  0.8592983356194424  0.9417344834051633  1.0000
  H   H104      1.0  0.9201167790292004  0.6407017611767641  0.4417307857179082  1.0000
  H   H105      1.0  0.2774914470540539  0.47418499267806186  0.894260288016916  1.0000
  H   H106      1.0  0.22250937571185153  0.0258126752486447  0.3942609851613526  1.0000
  H   H107      1.0  0.722506695479737  0.5258135659296884  0.1057404090985798  1.0000
  H   H108      1.0  0.7774946594089442  0.9741853520694687  0.6057393259323263  1.0000
  H   H109      1.0  0.4124692580654141  0.44242106421652494  0.9501093493535464  1.0000
  H   H110      1.0  0.0875299145576633  0.0575765255223288  0.4501093174419069  1.0000
  H   H111      1.0  0.5875279155571961  0.557576949657971  0.049891347762312  1.0000
  H   H112      1.0  0.91247280230926  0.9424220420484344  0.5498902216106032  1.0000
  H   H113      1.0  0.08934868359638415  0.4434219422645924  0.9242159270003895  1.0000
  H   H114      1.0  0.41065234215206914  0.056578400031348494  0.4242157523526516  1.0000
  H   H115      1.0  0.9106500785037215  0.556578246061001  0.075785928176515  1.0000
  H   H116      1.0  0.5893498188474526  0.9434207092844674  0.5757849447618142  1.0000
  H   H117      1.0  0.5582538672753046  0.119180355538397  0.1182758022823407  1.0000
  H   H118      1.0  0.9417530638911984  0.3808194772105297  0.6182743098312642  1.0000
  H   H119      1.0  0.4417458000361949  0.8808182060570219  0.8817245088121624  1.0000
  H   H120      1.0  0.058257547089631656  0.6191818200033836  0.3817221410535012  1.0000
  H   H121      1.0  0.4429706951863324  0.2820399806404552  0.1610009370987484  1.0000
  H   H122      1.0  0.05702723686989942  0.21796505153560017  0.6610008597422308  1.0000
  H   H123      1.0  0.5570290358275543  0.7179607524199483  0.8389986019538469  1.0000
  H   H124      1.0  0.942975115235484  0.7820405721743952  0.3389986793084816  1.0000
  H   H125      1.0  0.9041493753782888  0.3201196034416186  0.1436993788447509  1.0000
  H   H126      1.0  0.5958471109154856  0.1798769177098762  0.6437020066374829  1.0000
  H   H127      1.0  0.09584994258965204  0.6798800431391782  0.856300932249539  1.0000
  H   H128      1.0  0.40415581247310683  0.8201221930999125  0.35629830445615335  1.0000
  H   H129      1.0  0.7574289298438543  0.27208054291856587  0.2037638525405683  1.0000
  H   H130      1.0  0.7425652772762631  0.22791426464996084  0.7037663897790482  1.0000
  H   H131      1.0  0.24256845030086543  0.7279180141952181  0.7962372305957643  1.0000
  H   H132      1.0  0.2574351524243071  0.7720842984394238  0.2962335352946255  1.0000
  H   H133      1.0  0.9564200610101848  0.3903139211504367  0.9871521709905552  1.0000
  H   H134      1.0  0.5435807691054109  0.10968757591262354  0.4871525169238495  1.0000
  H   H135      1.0  0.043579876524077625  0.6096873551482105  0.012849298165143401  1.0000
  H   H136      1.0  0.45642215428318184  0.8903115348971653  0.5128477941697867  1.0000
  H   H137      1.0  0.8765592706671085  0.19324419352756186  0.022706261547050105  1.0000
  H   H138      1.0  0.6234414265713967  0.3067568409395633  0.5227080377108138  1.0000
  H   H139      1.0  0.12343852252311659  0.8067554500655588  0.9772944355682399  1.0000
  H   H140      1.0  0.3765615605174162  0.6932444413339025  0.4772934314442026  1.0000
  H   H141      1.0  0.7462723095237324  0.15050011103097205  0.0882711385550579  1.0000
  H   H142      1.0  0.753734196828013  0.3495024753279948  0.5882720622178041  1.0000
  H   H143      1.0  0.2537273577890673  0.8494984505652283  0.9117280144774753  1.0000
  H   H144      1.0  0.24627550893926303  0.6505004486147924  0.4117278628526577  1.0000
  C   C1        1.0  0.6649077873171338  0.3834443093753137  0.9189856214235164  1.0000
  C   C2        1.0  0.8350903682000207  0.11655184558490818  0.418986220481024  1.0000
  C   C3        1.0  0.33509091108491873  0.6165537074878955  0.0810131455887131  1.0000
  C   C4        1.0  0.16490894976792  0.8834478009958887  0.5810140906132659  1.0000
  C   C5        1.0  0.007905841160365419  0.1783388290052628  0.150689291227728  1.0000
  C   C6        1.0  0.4920908112089037  0.3216607861554621  0.6506866497981462  1.0000
  C   C7        1.0  0.992094652239125  0.8216619055470247  0.8493129499693026  1.0000
  C   C8        1.0  0.5079035193834258  0.6783377649847965  0.3493125032355664  1.0000
  C   C9        1.0  0.924918864648518  0.003182589226881301  0.3155253598285199  1.0000
  C   C10       1.0  0.5750807622466  0.49681696448123364  0.8155243543948744  1.0000
  C   C11       1.0  0.07508245484373095  0.9968203182851383  0.6844745652438107  1.0000
  C   C12       1.0  0.4249156489878061  0.5031810478998152  0.1844759567004957  1.0000
  C   C13       1.0  0.5712582404113888  0.3685141495433584  0.9549481027206923  1.0000
  C   C14       1.0  0.9287398980823766  0.1314841284585455  0.4549474942672589  1.0000
  C   C15       1.0  0.4287399021232617  0.6314844090649032  0.045051822353492796  1.0000
  C   C16       1.0  0.07126038879803803  0.8685160628562799  0.5450516587646987  1.0000
  C   C17       1.0  0.9269934941619979  0.5754505754724234  0.6801313697984099  1.0000
  C   C18       1.0  0.5730067885288862  0.9245498690902353  0.1801303774759049  1.0000
  C   C19       1.0  0.07300588750486273  0.4245512425712832  0.3198712574192442  1.0000
  C   C20       1.0  0.42699349835066164  0.07545032222407141  0.8198695475973707  1.0000
  C   C21       1.0  0.9192969782294823  0.6233662207589531  0.6350804318334154  1.0000
  C   C22       1.0  0.5807012612430571  0.8766326517583495  0.1350802335768861  1.0000
  C   C23       1.0  0.08070281648332413  0.3766366837643531  0.3649214233425369  1.0000
  C   C24       1.0  0.4192976436793714  0.12336590834310358  0.8649204635384463  1.0000
  C   C25       1.0  0.7524662442440332  0.442425500468019  0.9284052624622845  1.0000
  C   C26       1.0  0.7475343838177579  0.05757118952976731  0.4284051596102429  1.0000
  C   C27       1.0  0.24752988135006151  0.557575768363918  0.0715935045496536  1.0000
  C   C28       1.0  0.25246833304829164  0.9424273780404776  0.5715951514835851  1.0000
  C   C29       1.0  0.26249930499353985  0.2012106525648178  0.04404793368190239  1.0000
  C   C30       1.0  0.23749890501153464  0.2987885659363414  0.5440458032968749  1.0000
  C   C31       1.0  0.7375002194965035  0.7987895372552601  0.9559527634328546  1.0000
  C   C32       1.0  0.7625004129616004  0.7012110806475745  0.4559498755495213  1.0000
  C   C33       1.0  0.173950062418406  0.192895156417066  0.08219065677101159  1.0000
  C   C34       1.0  0.32604841131082213  0.3071029257399758  0.5821877106693236  1.0000
  C   C35       1.0  0.8260494620707707  0.8071050334024934  0.9178108123850635  1.0000
  C   C36       1.0  0.673949318183091  0.6928945463918054  0.41780835419866247  1.0000
  C   C37       1.0  0.8389575625271634  0.4577520169399635  0.8951704046187104  1.0000
  C   C38       1.0  0.6610412023165608  0.0422436283426464  0.3951695762110177  1.0000
  C   C39       1.0  0.16103662524457724  0.5422481624254729  0.1048283623939454  1.0000
  C   C40       1.0  0.33896054563831524  0.9577543944943514  0.6048307348831656  1.0000
  C   C41       1.0  0.9955406503569435  0.13158484143551868  0.108205581132701  1.0000
  C   C42       1.0  0.5044588223502516  0.368413361711653  0.6082031310923952  1.0000
  C   C43       1.0  0.004458524788681603  0.8684164333694255  0.891795888023168  1.0000
  C   C44       1.0  0.4955398760513675  0.6315846551512935  0.3917960219404932  1.0000
  C   C45       1.0  0.9388667223223096  0.48482089509190734  0.7622615325125252  1.0000
  C   C46       1.0  0.5611338502272076  0.015180903294897503  0.2622596047085395  1.0000
  C   C47       1.0  0.06113764672276294  0.5151820183938938  0.2377399366417592  1.0000
  C   C48       1.0  0.4388658807871126  0.9848198297657618  0.7377395483233968  1.0000
  C   C49       1.0  0.6645848656882408  0.3387493928756981  0.8760064792786295  1.0000
  C   C50       1.0  0.8354145617403291  0.1612479079294005  0.3760062824245125  1.0000
  C   C51       1.0  0.3354144522805598  0.6612502537056243  0.1239930597743424  1.0000
  C   C52       1.0  0.16458607448321072  0.8387511983997912  0.6239932566283173  1.0000
  C   C53       1.0  0.07910283887623851  0.13944962832360366  0.0737881803135281  1.0000
  C   C54       1.0  0.420897527835237  0.3605473831494734  0.5737851637861695  1.0000
  C   C55       1.0  0.9208963362693794  0.8605516464813332  0.9262132888423338  1.0000
  C   C56       1.0  0.5791013133895717  0.6394490054898511  0.426212059143829  1.0000
  C   C57       1.0  0.914564616651859  0.1022584961813067  0.23896199844982394  1.0000
  C   C58       1.0  0.585432894941789  0.39774115613845135  0.7389610410207296  1.0000
  C   C59       1.0  0.0854342091519343  0.8977438636100459  0.7610379266231959  1.0000
  C   C60       1.0  0.41456102260459465  0.6022563085222002  0.2610388840546847  1.0000
  C   C61       1.0  0.8377195262663621  0.4119164394234005  0.8528366895202169  1.0000
  C   C62       1.0  0.6622808583835252  0.0880792658496361  0.35283506418983274  1.0000
  C   C63       1.0  0.1622767421474549  0.5880832011828331  0.1471632355540962  1.0000
  C   C64       1.0  0.3377206830501154  0.9119182137485994  0.6471640888425654  1.0000
  C   C65       1.0  0.8934680857587624  0.5000117244082103  0.6740257085012047  1.0000
  C   C66       1.0  0.6065289545615472  0.9999881791619245  0.1740238892264969  1.0000
  C   C67       1.0  0.10652997765378558  0.49999063388788284  0.3259765326959397  1.0000
  C   C68       1.0  0.3934696010186229  1.1465925680900345e-05  0.8259756498266456  1.0000
  C   C69       1.0  0.9000823196848984  0.4541768190253206  0.7149134133535638  1.0000
  C   C70       1.0  0.5999152458921557  0.0458228656763495  0.2149118381075326  1.0000
  C   C71       1.0  0.09991838023800174  0.5458244587670363  0.2850880558019639  1.0000
  C   C72       1.0  0.4000833096880144  0.9541767794112628  0.785087700945617  1.0000
  C   C73       1.0  0.18515551957065676  0.23895653939882072  0.1251551273556188  1.0000
  C   C74       1.0  0.314842714893203  0.2610431131310733  0.6251525966944769  1.0000
  C   C75       1.0  0.8148458790380604  0.7610425684219988  0.8748474998623053  1.0000
  C   C76       1.0  0.6851556341678846  0.7389559887190771  0.3748438541935926  1.0000
  C   C77       1.0  0.982992866849564  0.12473833521566037  0.2805757763242553  1.0000
  C   C78       1.0  0.5170070450196959  0.3752618087911371  0.7805756332093025  1.0000
  C   C79       1.0  0.01700748373193772  0.875264027563368  0.7194237627277714  1.0000
  C   C80       1.0  0.48298881034860847  0.6247367453357525  0.219424677886046  1.0000
  C   C81       1.0  0.1649344115551941  0.2396193634842234  0.9134996448421547  1.0000
  C   C82       1.0  0.3350658758594919  0.26038099174731133  0.4134997815389383  1.0000
  C   C83       1.0  0.8350644933681012  0.7603791966177482  0.08650028023185999  1.0000
  C   C84       1.0  0.6649353799312367  0.7396197443002422  0.586500143533975  1.0000
  C   C85       1.0  0.09384252648704464  0.2612005527156356  0.8803547630866929  1.0000
  C   C86       1.0  0.40615963033092584  0.23880256483727172  0.3803544936972116  1.0000
  C   C87       1.0  0.906160111258643  0.7388018145434713  0.11964632004745822  1.0000
  C   C88       1.0  0.593840450026086  0.7611970832374908  0.6196454313762487  1.0000
  C   C89       1.0  0.858818381472837  0.9811184026679811  0.2727829775155612  1.0000
  C   C90       1.0  0.6411803749855807  0.5188824573915054  0.7727814244475012  1.0000
  C   C91       1.0  0.14117988846355436  0.0188844988684309  0.7272181056194141  1.0000
  C   C92       1.0  0.3588160362492587  0.481115554989806  0.2272185006272096  1.0000
  C   C93       1.0  0.9249883326847979  0.9517286250391522  0.3594415202808392  1.0000
  C   C94       1.0  0.5750121670704545  0.5482732078008395  0.8594399809490625  1.0000
  C   C95       1.0  0.0750120815977908  0.04827590920408648  0.6405584047912498  1.0000
  C   C96       1.0  0.4249861819867391  0.4517258940469657  0.1405599441249308  1.0000
  C   C97       1.0  0.966385181680906  0.6054216401251368  0.7278824945686891  1.0000
  C   C98       1.0  0.5336152003429646  0.8945792833794853  0.227882307663279  1.0000
  C   C99       1.0  0.03361669367484413  0.39458072563948576  0.2721197466276024  1.0000
  C   C100      1.0  0.4663858489243609  0.10542090942800539  0.7721183894511441  1.0000
  C   C101      1.0  0.9885917327490787  0.074663530177105  0.3186706230639587  1.0000
  C   C102      1.0  0.5114080936073506  0.42533656253487345  0.818670455848995  1.0000
  C   C103      1.0  0.011407648920375397  0.9253382878681503  0.6813296880297415  1.0000
  C   C104      1.0  0.48858928653780254  0.5746619945791666  0.1813302412666786  1.0000
  C   C105      1.0  0.7513495128516186  0.352608619151546  0.8429302762545063  1.0000
  C   C106      1.0  0.7486520694671768  0.1473881874320426  0.3429305112479426  1.0000
  C   C107      1.0  0.24865036098415066  0.647390485684454  0.157068490757176  1.0000
  C   C108      1.0  0.2513491226224716  0.8526103771513077  0.6570690278049085  1.0000
  C   C109      1.0  0.8539853855534715  0.0304345749350503  0.23378935412194576  1.0000
  C   C110      1.0  0.6460123441735703  0.46956562758901293  0.7337887177253606  1.0000
  C   C111      1.0  0.14601191547303946  0.9695677818688894  0.7662105709514151  1.0000
  C   C112      1.0  0.3539825422835605  0.5304323818046227  0.2662115933703504  1.0000
  C   C113      1.0  0.971412276297052  0.5601411161435265  0.7694565443563022  1.0000
  C   C114      1.0  0.5285891878378166  0.939860839354317  0.269456335641884  1.0000
  C   C115      1.0  0.02859167970337506  0.4398607108634565  0.2305445387776999  1.0000
  C   C116      1.0  0.4714092249208974  0.06014043395795451  0.7305435894315194  1.0000
  C   C117      1.0  0.10167774755787211  0.231997755367658  0.1596611483380244  1.0000
  C   C118      1.0  0.39831964706007744  0.26800184920583087  0.6596589629909745  1.0000
  C   C119      1.0  0.8983253823502296  0.7680018986798486  0.8403418649000329  1.0000
  C   C120      1.0  0.601674127667451  0.731997243681043  0.34033903198074  1.0000
  C   C121      1.0  0.30138717484013006  0.2753327816862594  0.8545453721075731  1.0000
  C   C122      1.0  0.19861262534359983  0.22466602320869808  0.3545455882644362  1.0000
  C   C123      1.0  0.6986101416056699  0.7246636039646146  0.1454533949053953  1.0000
  C   C124      1.0  0.8013884239254522  0.775334169599837  0.6454535647673579  1.0000
  C   C125      1.0  0.9840812663586006  0.2528105537174028  0.8951403172318068  1.0000
  C   C126      1.0  0.5159219146438048  0.2471926999457138  0.3951409884548553  1.0000
  C   C127      1.0  0.015920608998449475  0.7471918120479941  0.1048607659025151  1.0000
  C   C128      1.0  0.4840785787569857  0.752808034607355  0.6048600946802054  1.0000
  C   C129      1.0  0.131271995152062  0.2901239658520324  0.8320010274058944  1.0000
  C   C130      1.0  0.3687302702076565  0.2098792168095684  0.3320004039454716  1.0000
  C   C131      1.0  0.8687280060837139  0.7098794819110807  0.1680004417492142  1.0000
  C   C132      1.0  0.6312718907918653  0.7901198925062545  0.6680002931689942  1.0000
  C   C133      1.0  0.23658121587150305  0.2975054929595728  0.8191380217229991  1.0000
  C   C134      1.0  0.2634214277048912  0.2024966220361648  0.3191382209149722  1.0000
  C   C135      1.0  0.7634185151423765  0.7024952401008309  0.1808615173295962  1.0000
  C   C136      1.0  0.7365796215628607  0.7975035707715888  0.680862090178792  1.0000
  C   C137      1.0  0.6254952425223337  0.1974167768408677  0.9823312835519928  1.0000
  C   C138      1.0  0.8745038034138234  0.3025820090222808  0.48233138035932654  1.0000
  C   C139      1.0  0.3745031065344265  0.8025823250066824  0.0176690275426594  1.0000
  C   C140      1.0  0.12549662628804736  0.6974165540678853  0.5176673866523771  1.0000
  C   C141      1.0  0.20631931765052514  0.3809179169951165  0.0254656359857037  1.0000
  C   C142      1.0  0.2936801094988013  0.11908241449886249  0.525465120172079  1.0000
  C   C143      1.0  0.793678824882832  0.6190806416123634  0.9745354471504584  1.0000
  C   C144      1.0  0.7063235762788622  0.880916697804885  0.4745348049007276  1.0000
  C   C145      1.0  0.594834573067331  0.27193298367399177  0.18891714808484042  1.0000
  C   C146      1.0  0.9051615260839442  0.22806673304237518  0.6889184550896702  1.0000
  C   C147      1.0  0.4051624577346901  0.7280666584256892  0.8110831630099611  1.0000
  C   C148      1.0  0.09483999993127415  0.7719367177094439  0.3110810839618097  1.0000
  C   C149      1.0  0.6645269172498801  0.3378296971987638  0.0965774994811639  1.0000
  C   C150      1.0  0.8354706437317603  0.1621674321360658  0.5965796444097364  1.0000
  C   C151      1.0  0.33547219419508423  0.6621694061422332  0.9034231976339768  1.0000
  C   C152      1.0  0.16453289922531408  0.8378333083928736  0.4034198946420133  1.0000
  C   C153      1.0  0.5027135301506789  0.15302265323420977  0.0468056248020829  1.0000
  C   C154      1.0  0.9972898923266059  0.3469756400568612  0.5468029676299295  1.0000
  C   C155      1.0  0.49728710607113413  0.8469764530939442  0.9531954583333757  1.0000
  C   C156      1.0  0.0027160806213118193  0.6530234767306098  0.4531930972357827  1.0000
  C   C157      1.0  0.12472055885695003  0.3973898550486794  0.9966920820229959  1.0000
  C   C158      1.0  0.3752793352909691  0.1026098449249204  0.4966915126019273  1.0000
  C   C159      1.0  0.8752793786773058  0.6026114212499679  0.0033093871327025998  1.0000
  C   C160      1.0  0.6247227620078988  0.8973870929269621  0.5033084124718101  1.0000
  C   C161      1.0  0.25428792393704924  0.447314776414018  0.931150364508028  1.0000
  C   C162      1.0  0.24571246667772328  0.05268392682599911  0.43115026505870446  1.0000
  C   C163      1.0  0.7457118070755373  0.5526859566456037  0.0688503326065444  1.0000
  C   C164      1.0  0.7542888682329405  0.947313009532429  0.5688492739945445  1.0000
  C   C165      1.0  0.3302978831244872  0.42959246662199047  0.9622833044776301  1.0000
  C   C166      1.0  0.16970223108293683  0.07040565145813818  0.4622828433014234  1.0000
  C   C167      1.0  0.6697002594088701  0.5704060919854966  0.0377177786585321  1.0000
  C   C168      1.0  0.8303012481721908  0.9295929176060725  0.5377170817715751  1.0000
  C   C169      1.0  0.15026521178243268  0.43053440920252223  0.9482024685848103  1.0000
  C   C170      1.0  0.3497363159886575  0.06946535904962299  0.4482023141050675  1.0000
  C   C171      1.0  0.8497352816179244  0.569466325350291  0.051799000570909505  1.0000
  C   C172      1.0  0.6502646695780073  0.9305326622939276  0.5517976109686273  1.0000
  C   C173      1.0  0.7085197671414463  0.1867331654393709  0.013024130375541199  1.0000
  C   C174      1.0  0.7914815076992314  0.3132673403202873  0.5130238984736977  1.0000
  C   C175      1.0  0.2914783753927709  0.8132653931686348  0.9869761807192958  1.0000
  C   C176      1.0  0.2085208598241266  0.6867323122358542  0.4869756405785992  1.0000
  C   C177      1.0  0.5798700842229466  0.141167919882264  0.079828134082689  1.0000
  C   C178      1.0  0.9201347097839799  0.3588341316198935  0.5798266628879887  1.0000
  C   C179      1.0  0.4201286141765124  0.8588300969793891  0.9201729490534944  1.0000
  C   C180      1.0  0.0798736777315838  0.6411693325768437  0.4201705600380166  1.0000
  C   C181      1.0  0.527260367036881  0.29147512160960076  0.153536820458271  1.0000
  C   C182      1.0  0.9727358752354222  0.20852681421096259  0.6535381078752565  1.0000
  C   C183      1.0  0.4727386015875013  0.7085256099565738  0.8464634906358058  1.0000
  C   C184      1.0  0.027265857302339193  0.7914771797804007  0.34646143117603156  1.0000
  C   C185      1.0  0.7385072597404657  0.3193776392990628  0.1296637046256492  1.0000
  C   C186      1.0  0.7614903697919644  0.1806178172598862  0.6296662585815866  1.0000
  C   C187      1.0  0.26149240757060005  0.6806209222960931  0.8703369924895127  1.0000
  C   C188      1.0  0.238512966642574  0.8193823800295019  0.37033328047035496  1.0000
  C   C189      1.0  0.8492618346155113  0.33236972126326236  0.1151639686549757  1.0000
  C   C190      1.0  0.6507361768097865  0.1676246698349928  0.6151654205527848  1.0000
  C   C191      1.0  0.1507378326951212  0.6676288403316376  0.8848371144808453  1.0000
  C   C192      1.0  0.34926557114552287  0.8323733530022679  0.3848345045207465  1.0000
  C   C193      1.0  0.7020127535020109  0.28661930142021663  0.17710797644600973  1.0000
  C   C194      1.0  0.7979797821541299  0.2133749958138438  0.6771101108117179  1.0000
  C   C195      1.0  0.2979863579433868  0.7133798019210431  0.822892334648472  1.0000
  C   C196      1.0  0.20202050472628502  0.7866251955009815  0.3228890422202396  1.0000
  C   C197      1.0  0.01627640726539428  0.38315661931618905  0.0149821284830196  1.0000
  C   C198      1.0  0.4837235992819586  0.11684318454756952  0.5149823016372892  1.0000
  C   C199      1.0  0.9837223548351445  0.6168435690096673  0.9850193406732258  1.0000
  C   C200      1.0  0.5162804358388301  0.8831548427705442  0.4850180094563825  1.0000
  C   C201      1.0  0.8173819797584516  0.2026331802109027  0.9953250810083603  1.0000
  C   C202      1.0  0.6826218815645575  0.2973683118214653  0.4953264237244142  1.0000
  C   C203      1.0  0.18261768755391475  0.7973653813850348  0.0046744580448248  1.0000
  C   C204      1.0  0.3173799300909722  0.7026318824794799  0.5046746594104974  1.0000
  C   C205      1.0  0.6840343206132572  0.15843277305467038  0.062870218886566  1.0000
  C   C206      1.0  0.8159670488582761  0.3415682088263808  0.5628703471253758  1.0000
  C   C207      1.0  0.31596320235291137  0.8415641558344477  0.9371304782295055  1.0000
  C   C208      1.0  0.18403863844413582  0.6584341644088524  0.4371288059048055  1.0000
  S   S1        1.0  0.9007019377414236  0.1687764124842275  0.19391182895557788  1.0000
  S   S2        1.0  0.5992966438895168  0.3312238452292107  0.6939105146703497  1.0000
  S   S3        1.0  0.09929820631710845  0.8312254070550011  0.8060880961172998  1.0000
  S   S4        1.0  0.4006972736564336  0.668773619431178  0.3060897964257236  1.0000
  S   S5        1.0  0.9518816792800847  0.4256057006195633  0.813092745635771  1.0000
  S   S6        1.0  0.5481169204605082  0.07439114016491999  0.31309388033470503  1.0000
  S   S7        1.0  0.04811369934422063  0.5743895955653356  0.18690524933660407  1.0000
  S   S8        1.0  0.45188350923919535  0.9256074229239459  0.6869068167802866  1.0000
  N   N1        1.0  0.5255105194528228  0.1812224403892841  0.9991363333567023  1.0000
  N   N2        1.0  0.9744898070174061  0.31877578259501854  0.4991344471321923  1.0000
  N   N3        1.0  0.4744874802586452  0.8187777464425989  0.0008655218203728  1.0000
  N   N4        1.0  0.025511734418401488  0.681221697004517  0.500862775796918  1.0000
  N   N5        1.0  0.265710720455779  0.24654579914023597  0.9007358475941557  1.0000
  N   N6        1.0  0.2342889760430111  0.2534529435593882  0.4007356466303165  1.0000
  N   N7        1.0  0.7342870090346596  0.7534516729894705  0.09926330543908789  1.0000
  N   N8        1.0  0.765712835615112  0.7465472507431059  0.5992631203806411  1.0000
  N   N9        1.0  0.3062557123353714  0.3963418762230475  0.0083525419108312  1.0000
  N   N10       1.0  0.1937443090943702  0.10365793656789178  0.5083520785952373  1.0000
  N   N11       1.0  0.6937426367205292  0.6036572256239765  0.9916485412251389  1.0000
  N   N12       1.0  0.8062584077721198  0.8963406310026087  0.4916478464779317  1.0000
  N   N13       1.0  0.5619472132185663  0.3244041663414166  0.10833571503900431  1.0000
  N   N14       1.0  0.9380489239948133  0.1755972871024909  0.6083378073576  1.0000
  N   N15       1.0  0.43805251779575377  0.67559656671925  0.891663437992932  1.0000
  N   N16       1.0  0.0619533644086091  0.8244061651427756  0.3916621177143682  1.0000
  N   N17       1.0  0.8458306484701623  0.2253913909370269  0.9490851980800555  1.0000
  N   N18       1.0  0.6541712360066186  0.27461070211640504  0.4490857934500596  1.0000
  N   N19       1.0  0.15417081384267572  0.7746098883498148  0.0509151130133318  1.0000
  N   N20       1.0  0.34582981326027357  0.7253894906908229  0.5509152896850225  1.0000
  N   N21       1.0  0.9530250635510101  0.23343940937141375  0.9416782077874046  1.0000
  N   N22       1.0  0.5469772505975287  0.2665637801346037  0.4416788549575799  1.0000
  N   N23       1.0  0.046977161150031976  0.7665618714088678  0.05832248932646421  1.0000
  N   N24       1.0  0.453024418237412  0.7334380423915193  0.5583218421562748  1.0000
  N   N25       1.0  0.8812880765045251  0.3557673436166765  0.0695062039166245  1.0000
  N   N26       1.0  0.618708989380103  0.14423036391627866  0.5695072964137609  1.0000
  N   N27       1.0  0.11871144798508483  0.6442328462031454  0.9304948792187987  1.0000
  N   N28       1.0  0.3812935209638512  0.8557676604146849  0.430492628659593  1.0000
  N   N29       1.0  0.9888106282495812  0.3645282043254667  0.06214862400629069  1.0000
  N   N30       1.0  0.5111876295853932  0.13547060108776074  0.5621489967860143  1.0000
  N   N31       1.0  0.011188340373500734  0.6354725272399335  0.937852845149763  1.0000
  N   N32       1.0  0.4888150872806634  0.8645279664824769  0.4378513143078138  1.0000
  O   O1        1.0  0.4859154876265921  0.3243045838363301  0.9406510862516982  1.0000
  O   O2        1.0  0.014081625585738805  0.17569355739732367  0.4406498661404257  1.0000
  O   O3        1.0  0.5140814794739085  0.6756928867988845  0.0593492248436931  1.0000
  O   O4        1.0  0.9859184547721397  0.8243060906779576  0.5593492868917238  1.0000
  O   O5        1.0  0.8601314640899886  0.5944371918336273  0.5974816544847883  1.0000
  O   O6        1.0  0.6398683845583196  0.9055617342974643  0.0974821866790592  1.0000
  O   O7        1.0  0.13986645650241772  0.40556679468789986  0.4025198146706401  1.0000
  O   O8        1.0  0.3601305203645424  0.0944368258042516  0.9025181244156145  1.0000
  O   O9        1.0  0.5838318565289313  0.40281443765945807  0.9979118040823919  1.0000
  O   O10       1.0  0.9161683298671264  0.0971854151974583  0.4979116054321793  1.0000
  O   O11       1.0  0.41616704839393054  0.5971841224422505  0.0020885070122816  1.0000
  O   O12       1.0  0.0838331324470047  0.9028158640901579  0.5020875475992312  1.0000
  O   O13       1.0  0.3484507903998662  0.24977278011223802  0.0516212410335584  1.0000
  O   O14       1.0  0.15154629087286517  0.2502275116830717  0.5516191745374215  1.0000
  O   O15       1.0  0.6515474795395593  0.7502301214259932  0.9483771399568114  1.0000
  O   O16       1.0  0.8484540751365871  0.7497688799480925  0.4483714860410402  1.0000
  O   O17       1.0  0.9887132280151648  0.9755053127265897  0.396771241587409  1.0000
  O   O18       1.0  0.511287537288247  0.5244953848634066  0.8967697431324169  1.0000
  O   O19       1.0  0.011287329088013106  0.024497593291464205  0.6032290695057512  1.0000
  O   O20       1.0  0.48871101829104896  0.47550426022368003  0.1032305679620507  1.0000
  O   O21       1.0  0.8626973241042466  0.8884113703858533  0.3580908646128407  1.0000
  O   O22       1.0  0.6373037345486026  0.6115899225267398  0.8580896500706245  1.0000
  O   O23       1.0  0.1373062825539151  0.11159154160728238  0.6419090604589784  1.0000
  O   O24       1.0  0.36269232734311163  0.38840917484020576  0.1419098889832142  1.0000
  O   O25       1.0  0.9708312264659258  0.6899682648791908  0.6364754813899366  1.0000
  O   O26       1.0  0.5291679787853384  0.8100311504923637  0.13647611337985674  1.0000
  O   O27       1.0  0.029172173667099344  0.3100341038728445  0.363526759806021  1.0000
  O   O28       1.0  0.4708316885244272  0.1899674111020175  0.8635257417972824  1.0000
  O   O29       1.0  0.9149438281674949  0.23703050342049184  0.22163851350885722  1.0000
  O   O30       1.0  0.5850552470899899  0.26296917521275276  0.7216376277920205  1.0000
  O   O31       1.0  0.0850559028455251  0.7629702296393858  0.7783617975850561  1.0000
  O   O32       1.0  0.41493658981301723  0.73702882820632  0.2783622972837136  1.0000
  O   O33       1.0  0.24733158601132738  0.1578464497938086  0.005739258420120999  1.0000
  O   O34       1.0  0.2526663606422019  0.3421539052749836  0.5057378703309183  1.0000
  O   O35       1.0  0.7526660006559281  0.8421526505595194  0.9942618247160127  1.0000
  O   O36       1.0  0.747331480832429  0.657853880936976  0.4942620547408794  1.0000
  O   O37       1.0  0.8039217664289638  0.1398219937388419  0.16494525391450313  1.0000
  O   O38       1.0  0.696075148924521  0.3601777567512627  0.6649438813484494  1.0000
  O   O39       1.0  0.19607740871925486  0.8601792810676515  0.8350538991174119  1.0000
  O   O40       1.0  0.3039214051313337  0.6398186274051338  0.3350560437266595  1.0000
  O   O41       1.0  0.9485947794469566  0.35567236866100416  0.7894617382846435  1.0000
  O   O42       1.0  0.5514099570323339  0.1443304870475188  0.2894609042954741  1.0000
  O   O43       1.0  0.05140812852148721  0.6443327133013314  0.2105405029107033  1.0000
  O   O44       1.0  0.4485918546240626  0.8556697072539379  0.7105394067981265  1.0000
  O   O45       1.0  0.04267559668853243  0.46271898674547174  0.843937918053534  1.0000
  O   O46       1.0  0.4573291355657148  0.037284727564468795  0.343936188871325  1.0000
  O   O47       1.0  0.9573297412655466  0.5372844714722762  0.1560654812036759  1.0000
  O   O48       1.0  0.5426730891361943  0.9627165532163388  0.6560637362012328  1.0000
