data_image0
_chemical_formula_structural       Cd8H224C208N32Cl16
_chemical_formula_sum              "Cd8 H224 C208 N32 Cl16"
_cell_length_a       17.447257640196067
_cell_length_b       17.44710488695918
_cell_length_c       24.78607533108213
_cell_angle_alpha    110.614348867553
_cell_angle_beta     110.60478597962671
_cell_angle_gamma    90.00407959158626

_space_group_name_H-M_alt    "P 1"
_space_group_IT_number       1

loop_
  _space_group_symop_operation_xyz
  'x, y, z'

loop_
  _atom_site_type_symbol
  _atom_site_label
  _atom_site_symmetry_multiplicity
  _atom_site_fract_x
  _atom_site_fract_y
  _atom_site_fract_z
  _atom_site_occupancy
  Cd  Cd1       1.0  0.7183910818675374  0.4684343766798733  0.9368516482474973  1.0000
  Cd  Cd2       1.0  0.4684010129710573  0.7184166106485248  0.4368849955075902  1.0000
  Cd  Cd3       1.0  0.2816100566737703  0.5315657975022035  0.0631488355663734  1.0000
  Cd  Cd4       1.0  0.5315981636622952  0.28158243244948983  0.5631141517752739  1.0000
  Cd  Cd5       1.0  0.0946717068140118  0.3446424612960968  0.6893377811223971  1.0000
  Cd  Cd6       1.0  0.34461313709780234  0.09466769125899081  0.18933523552904316  1.0000
  Cd  Cd7       1.0  0.9053281428250203  0.6553578909487784  0.3106626527113932  1.0000
  Cd  Cd8       1.0  0.6553866949882308  0.9053307360019075  0.8106645642656788  1.0000
  H   H1        1.0  0.5501645874508015  0.3803034421816278  0.8161342007132077  1.0000
  H   H2        1.0  0.7659485563891053  0.4358117088118831  0.8162060525759501  1.0000
  H   H3        1.0  0.43590601627608555  0.5502080679902903  0.31620841197317867  1.0000
  H   H4        1.0  0.38032271900669207  0.7659217943914172  0.3161914848974234  1.0000
  H   H5        1.0  0.4498375889035132  0.619697167996492  0.18386608311730165  1.0000
  H   H6        1.0  0.23405136906195884  0.5641884707050122  0.18379322359267997  1.0000
  H   H7        1.0  0.5640942756323781  0.44979219611231963  0.6837918455764437  1.0000
  H   H8        1.0  0.6196777261759153  0.2340790819917586  0.6838089252371662  1.0000
  H   H9        1.0  0.4319992164007758  0.4133546669592718  0.7384256735960548  1.0000
  H   H10       1.0  0.8062762315756447  0.32495962811232465  0.7384354160765625  1.0000
  H   H11       1.0  0.3250970304396574  0.43206914487047493  0.23841732382908273  1.0000
  H   H12       1.0  0.41344712412333007  0.8062793293644716  0.23845791873859667  1.0000
  H   H13       1.0  0.5680020375086557  0.5866462058673533  0.2615755416353593  1.0000
  H   H14       1.0  0.19372334942111993  0.675039413207422  0.26156413375471743  1.0000
  H   H15       1.0  0.6749039548275064  0.567930417031029  0.761583007399821  1.0000
  H   H16       1.0  0.58655232115229  0.19372102465867166  0.7615421125467848  1.0000
  H   H17       1.0  0.5535537577242523  0.666298552294677  0.8245005722097645  1.0000
  H   H18       1.0  0.7708034667366519  0.15816178727526878  0.8245387410596193  1.0000
  H   H19       1.0  0.15819463777072693  0.5536780938703812  0.3244163627039144  1.0000
  H   H20       1.0  0.6663415543002673  0.7708340588970158  0.3245921601879829  1.0000
  H   H21       1.0  0.4464470918217671  0.3337023223102236  0.1755002404732409  1.0000
  H   H22       1.0  0.22919538299539968  0.8418380426095665  0.17546131392495568  1.0000
  H   H23       1.0  0.8418050965001813  0.4463215597299309  0.6755833397123254  1.0000
  H   H24       1.0  0.3336587930672081  0.2291680438255739  0.6754081525681316  1.0000
  H   H25       1.0  0.6676149821175558  0.6212119679827381  0.8975734186428499  1.0000
  H   H26       1.0  0.729914744618391  0.27640407265487715  0.8976586685289549  1.0000
  H   H27       1.0  0.2764336239045946  0.6676395801498459  0.3976260307960117  1.0000
  H   H28       1.0  0.6211717825413532  0.7298801536257499  0.39765926229263476  1.0000
  H   H29       1.0  0.33238634760391517  0.37878873211591463  0.10242663892341138  1.0000
  H   H30       1.0  0.2700852962008041  0.7235968055065739  0.10234133905722585  1.0000
  H   H31       1.0  0.7235663614555891  0.3323594593916184  0.602373921583677  1.0000
  H   H32       1.0  0.3788284115519859  0.2701213368162668  0.6023408978785127  1.0000
  H   H33       1.0  0.38944440570587363  0.6194710290546156  0.7569248076189866  1.0000
  H   H34       1.0  0.867344833212144  0.13737151126703404  0.7569552475382295  1.0000
  H   H35       1.0  0.1374422541893026  0.3896161787340234  0.2569339936361672  1.0000
  H   H36       1.0  0.6196121336157816  0.8673779755886953  0.25703805951397385  1.0000
  H   H37       1.0  0.6105552527530025  0.3805287972736764  0.2430760524624134  1.0000
  H   H38       1.0  0.13265545869631987  0.8626287528355759  0.2430450100114001  1.0000
  H   H39       1.0  0.862557633355749  0.610384087146862  0.7430658613650394  1.0000
  H   H40       1.0  0.38038706057056254  0.1326229924932889  0.7429617218079585  1.0000
  H   H41       1.0  0.3621510644564267  0.5154874240291817  0.7033989513701541  1.0000
  H   H42       1.0  0.8411781695204752  0.1878816880892415  0.7034754140452079  1.0000
  H   H43       1.0  0.18786181547191924  0.36219878582617326  0.20338592797472194  1.0000
  H   H44       1.0  0.5156305431655356  0.8412125456317266  0.2035349771060097  1.0000
  H   H45       1.0  0.6378499208107372  0.48451213787232206  0.2966013798587497  1.0000
  H   H46       1.0  0.15882152684441309  0.8121180518750604  0.2965248672036154  1.0000
  H   H47       1.0  0.8121383231624082  0.6378008659958709  0.7966141769899409  1.0000
  H   H48       1.0  0.4843686131147963  0.15878850881424714  0.7964653830484991  1.0000
  H   H49       1.0  0.46360504514666473  0.541051639179102  0.6583749379319316  1.0000
  H   H50       1.0  0.6946842178223424  0.11730472935741426  0.6583753598568975  1.0000
  H   H51       1.0  0.11730080230065451  0.4635956187301105  0.15829866596264003  1.0000
  H   H52       1.0  0.5410729295828887  0.6947279503532114  0.15840692100119463  1.0000
  H   H53       1.0  0.536395804399355  0.4589492354257984  0.3416258747510668  1.0000
  H   H54       1.0  0.3053157296318219  0.8826943965480466  0.34162517135537473  1.0000
  H   H55       1.0  0.8826999318772408  0.5364045572302417  0.8417014153028147  1.0000
  H   H56       1.0  0.4589270134211746  0.3052741541476466  0.8415929892065038  1.0000
  H   H57       1.0  0.49140103124235435  0.6451811784465492  0.7138291555231434  1.0000
  H   H58       1.0  0.7222715615419802  0.06859098564931537  0.7137911101300034  1.0000
  H   H59       1.0  0.06869000354138417  0.4915227932945284  0.21378178639360354  1.0000
  H   H60       1.0  0.6451974504291087  0.7222844763743196  0.21384342138076556  1.0000
  H   H61       1.0  0.5085997803976455  0.35481978252234103  0.2861722359924316  1.0000
  H   H62       1.0  0.2777292325450276  0.931408050335605  0.28620964734651005  1.0000
  H   H63       1.0  0.9313107306365114  0.5084773826658163  0.7862182948718512  1.0000
  H   H64       1.0  0.35480233930081084  0.27771701584597247  0.786156336241973  1.0000
  H   H65       1.0  0.31744886497294544  0.5671819796599848  0.6168282052014151  1.0000
  H   H66       1.0  0.7993443114898043  0.04965428049657561  0.6168706487444808  1.0000
  H   H67       1.0  0.049526556134125585  0.3174707956637661  0.11684872573700028  1.0000
  H   H68       1.0  0.5673122683367141  0.7993588385879561  0.11692646194868661  1.0000
  H   H69       1.0  0.682552273568362  0.43281819452209186  0.3831722786124558  1.0000
  H   H70       1.0  0.20065526950696727  0.9503447608231639  0.38312890108679915  1.0000
  H   H71       1.0  0.9504739269544943  0.6825299943554268  0.8831511055650124  1.0000
  H   H72       1.0  0.4326873681190691  0.20064204135176308  0.8830731430890779  1.0000
  H   H73       1.0  0.34561423390444185  0.6712262819717623  0.6707498833119915  1.0000
  H   H74       1.0  0.8250121770375004  0.9994838970972425  0.6707459921635177  1.0000
  H   H75       1.0  0.999483073762342  0.3457637417561798  0.1708116305958142  1.0000
  H   H76       1.0  0.6713400517997388  0.8250669452381915  0.17084485552789633  1.0000
  H   H77       1.0  0.6543855778285704  0.3287741566370953  0.32925112935436834  1.0000
  H   H78       1.0  0.17498740395926404  0.000515144222497096  0.3292535576677622  1.0000
  H   H79       1.0  0.0005176983215733189  0.6542363478401826  0.829187871837064  1.0000
  H   H80       1.0  0.3286605845630317  0.17493445706156763  0.8291551283590833  1.0000
  H   H81       1.0  0.41384473762710183  0.5202842205347763  0.5482805022479269  1.0000
  H   H82       1.0  0.6343872263647228  0.027970234859367303  0.5482406570910427  1.0000
  H   H83       1.0  0.027932457649605204  0.4138535731860529  0.04829731410215028  1.0000
  H   H84       1.0  0.5203182466323923  0.6344467152581359  0.0483233339910427  1.0000
  H   H85       1.0  0.5861558229236296  0.47971735449295483  0.4517206393042059  1.0000
  H   H86       1.0  0.3656125079061854  0.9720294187409451  0.45175904532520417  1.0000
  H   H87       1.0  0.9720674298954466  0.5861466926948252  0.9517025408990565  1.0000
  H   H88       1.0  0.4796817562807831  0.365554249267305  0.9516772524277144  1.0000
  H   H89       1.0  0.4554658413965668  0.5659256372260941  0.4757228752375227  1.0000
  H   H90       1.0  0.5202188236525416  0.9097392329329208  0.4756433684805542  1.0000
  H   H91       1.0  0.9097417272071342  0.4554192676478194  0.9757045458322083  1.0000
  H   H92       1.0  0.5658699169811287  0.5202854675952294  0.9756678633072866  1.0000
  H   H93       1.0  0.5445339703364455  0.43407480138276366  0.5242781374288441  1.0000
  H   H94       1.0  0.47978065952909804  0.09026103472623251  0.5243560839722434  1.0000
  H   H95       1.0  0.09025787134262941  0.5445816986558896  0.02429563803813291  1.0000
  H   H96       1.0  0.4341301837471718  0.4797142705907974  0.024332820489945586  1.0000
  H   H97       1.0  0.4188451459671257  0.806457595654571  0.557156470041086  1.0000
  H   H98       1.0  0.6382488606365727  0.7506296802907216  0.5570413739732842  1.0000
  H   H99       1.0  0.7505932711711836  0.4187824149730515  0.05708517325496835  1.0000
  H   H100      1.0  0.8064127398280477  0.638308847520726  0.05702869316930761  1.0000
  H   H101      1.0  0.581155261309462  0.1935433670925945  0.4428445189260799  1.0000
  H   H102      1.0  0.3617498737273479  0.24936945094955826  0.44295794959374757  1.0000
  H   H103      1.0  0.24940702073728022  0.5812178491295583  0.9429150842946614  1.0000
  H   H104      1.0  0.19358710981098443  0.36169150472414197  0.9429717406644755  1.0000
  H   H105      1.0  0.3799751601719735  0.7733172548942376  0.6356250876226001  1.0000
  H   H106      1.0  0.7555818539054684  0.8622735715204753  0.6355333035934194  1.0000
  H   H107      1.0  0.8621827722837097  0.37996262778528933  0.1355814415651508  1.0000
  H   H108      1.0  0.7733641169433484  0.755609278356566  0.13559762235239245  1.0000
  H   H109      1.0  0.62002443837779  0.22668371140947133  0.3643750962477412  1.0000
  H   H110      1.0  0.24441728482187136  0.1377255579415291  0.36446642252202116  1.0000
  H   H111      1.0  0.1378179618941858  0.6200375481750626  0.8644186397003041  1.0000
  H   H112      1.0  0.22663611505600298  0.24439212572146118  0.8644019589861784  1.0000
  H   H113      1.0  0.1470744556975347  0.5338889022351693  0.7257103094900685  1.0000
  H   H114      1.0  0.07855558847560923  0.1918204031501745  0.7257895684412148  1.0000
  H   H115      1.0  0.19179286451522873  0.1471437004101261  0.2257376207223203  1.0000
  H   H116      1.0  0.5338453592791269  0.07855421825191655  0.22580300191271613  1.0000
  H   H117      1.0  0.8529249895780852  0.466111451787974  0.2742897217953058  1.0000
  H   H118      1.0  0.9214468389679739  0.8081795929691038  0.27421096535273637  1.0000
  H   H119      1.0  0.8082075252083671  0.8528553373530697  0.7742627342057844  1.0000
  H   H120      1.0  0.4661526817260936  0.9214456151894691  0.7741962479750341  1.0000
  H   H121      1.0  0.26102468872000645  0.652676241817481  0.7961382453937206  1.0000
  H   H122      1.0  0.035147554465908226  0.14356304446408788  0.7962939180097595  1.0000
  H   H123      1.0  0.14352624244627077  0.2610328891763487  0.29626220089456723  1.0000
  H   H124      1.0  0.6526205286103562  0.035142051687259396  0.2962752410239275  1.0000
  H   H125      1.0  0.7389751609190186  0.3473241104273868  0.20386218844006979  1.0000
  H   H126      1.0  0.9648531621589884  0.8564352065122876  0.20370552921663432  1.0000
  H   H127      1.0  0.8564738961880495  0.7389667626456884  0.7037379040700884  1.0000
  H   H128      1.0  0.34737851230185157  0.9648583041141591  0.7037243877130379  1.0000
  H   H129      1.0  0.3842572604412312  0.4923815662818143  0.8878446704748342  1.0000
  H   H130      1.0  0.003550660557067492  0.395603289890289  0.887938130547319  1.0000
  H   H131      1.0  0.3955817728749552  0.3842498773219631  0.38795913049103353  1.0000
  H   H132      1.0  0.49225884484445004  0.003487602156546593  0.387920267749557  1.0000
  H   H133      1.0  0.6157426650098402  0.5076186132350812  0.11215460569380302  1.0000
  H   H134      1.0  0.996449133622953  0.6043952237346063  0.11206224807997972  1.0000
  H   H135      1.0  0.6044183058502527  0.6157509144755052  0.6120402982625635  1.0000
  H   H136      1.0  0.507740447157026  0.9965121395860235  0.6120796109508575  1.0000
  H   H137      1.0  0.26725247469952507  0.3794472565208409  0.8112276815369341  1.0000
  H   H138      1.0  0.04384796636163203  0.4318174989124586  0.8112634443888285  1.0000
  H   H139      1.0  0.4318106852899391  0.26726850442639716  0.3112774520130301  1.0000
  H   H140      1.0  0.3793507381984257  0.0438184926132195  0.31128047228904177  1.0000
  H   H141      1.0  0.7327485863796782  0.6205521326526834  0.1887714920268166  1.0000
  H   H142      1.0  0.956152385455944  0.5681816252147271  0.188737489371853  1.0000
  H   H143      1.0  0.5681899335198326  0.732730972889392  0.6887218978348812  1.0000
  H   H144      1.0  0.6206481115336187  0.9561813372716087  0.6887195826955335  1.0000
  H   H145      1.0  0.4545314893844792  0.6288861700176226  0.9180561072067307  1.0000
  H   H146      1.0  0.9635289157404259  0.2892348378187322  0.9181905933725787  1.0000
  H   H147      1.0  0.2892163818681368  0.4545774930857077  0.4181397074565538  1.0000
  H   H148      1.0  0.6289174668270904  0.963519699615574  0.4181678378931863  1.0000
  H   H149      1.0  0.545468244886429  0.37111348358268975  0.08194359520951623  1.0000
  H   H150      1.0  0.036470549888221585  0.7107635048564516  0.08180822504115066  1.0000
  H   H151      1.0  0.7107831013135029  0.5454227745734527  0.5818597449962439  1.0000
  H   H152      1.0  0.3710815740851174  0.036480656185844396  0.581831790843772  1.0000
  H   H153      1.0  0.42308272764810795  0.6795191094781925  0.8649755180461938  1.0000
  H   H154      1.0  0.9418782119371586  0.1855327183921602  0.865032581531537  1.0000
  H   H155      1.0  0.1855166187295936  0.4230437260954076  0.3650263305041292  1.0000
  H   H156      1.0  0.6794002810194473  0.9418396767605441  0.36497929952005853  1.0000
  H   H157      1.0  0.5769175642603556  0.3204811546244173  0.13502473950342878  1.0000
  H   H158      1.0  0.0581215047807504  0.8144650102241823  0.13496648684564147  1.0000
  H   H159      1.0  0.8144835578107463  0.5769558393626397  0.6349731956279498  1.0000
  H   H160      1.0  0.3205987598927609  0.058160679040874214  0.6350203292169072  1.0000
  H   H161      1.0  0.32023481432236867  0.7435530040727797  0.9123258898236131  1.0000
  H   H162      1.0  0.09201315593099917  0.16876623682599504  0.9123247939808152  1.0000
  H   H163      1.0  0.1688050090741983  0.3202994621667371  0.4124415471801868  1.0000
  H   H164      1.0  0.7434581414542906  0.09202408731832176  0.412233420920856  1.0000
  H   H165      1.0  0.6797659198555266  0.2564471718875652  0.08767419144184171  1.0000
  H   H166      1.0  0.9079873096046286  0.8312326282092286  0.08767440328212923  1.0000
  H   H167      1.0  0.8311945894755655  0.6797015041369788  0.5875586366901615  1.0000
  H   H168      1.0  0.25654203508604917  0.9079754781397326  0.587766105211223  1.0000
  H   H169      1.0  0.35599281206550154  0.6950789104248541  0.9669076286861511  1.0000
  H   H170      1.0  0.11093312733576968  0.2718345158542093  0.9669354184073599  1.0000
  H   H171      1.0  0.27187739555255064  0.35606374875621327  0.46700572519230843  1.0000
  H   H172      1.0  0.6950883259434378  0.11092505727753375  0.4668910300010154  1.0000
  H   H173      1.0  0.6440073265688183  0.3049207413971828  0.03309247627851161  1.0000
  H   H174      1.0  0.8890664915670146  0.7281644391015477  0.03306355259134359  1.0000
  H   H175      1.0  0.7281229342619255  0.643936428982407  0.5329939535247378  1.0000
  H   H176      1.0  0.30491196596502596  0.8890752068250691  0.5331092275486072  1.0000
  H   H177      1.0  0.4986154362119565  0.7687486400396536  0.004975615867195357  1.0000
  H   H178      1.0  0.0063224326714248  0.2363283693752791  0.004993248970585298  1.0000
  H   H179      1.0  0.2363308082933884  0.49873755597585057  0.5049968597871413  1.0000
  H   H180      1.0  0.7687478995071048  0.0064125308851714835  0.5049530747774895  1.0000
  H   H181      1.0  0.5013851067857756  0.23125101000410808  0.9950248916458762  1.0000
  H   H182      1.0  0.9936781482323271  0.7636711943044999  0.9950066797099097  1.0000
  H   H183      1.0  0.7636707346113314  0.5012626164279438  0.4950040265751454  1.0000
  H   H184      1.0  0.23125208585307896  0.9935865086562927  0.4950468776021992  1.0000
  H   H185      1.0  0.4648210395956341  0.8179074351436454  0.95097588013126  1.0000
  H   H186      1.0  0.9860654451109528  0.13314918690861793  0.9509735261500868  1.0000
  H   H187      1.0  0.13314941579888998  0.4648939829806337  0.45102458323695777  1.0000
  H   H188      1.0  0.8178483760288985  0.9861145796943089  0.45090374714822445  1.0000
  H   H189      1.0  0.5351795034021053  0.18209221490011626  0.04902462738180445  1.0000
  H   H190      1.0  0.013934693523374548  0.866850464913426  0.04902657881456912  1.0000
  H   H191      1.0  0.8668513738380171  0.535108031599691  0.5489755532349889  1.0000
  H   H192      1.0  0.18215160933127808  0.013884459847162108  0.5490962052314643  1.0000
  H   H193      1.0  0.44032119389983404  0.9565590818883862  0.9932004225505225  1.0000
  H   H194      1.0  0.052751698755358276  0.036701522791730695  0.9931433050659636  1.0000
  H   H195      1.0  0.03679103403884912  0.4404861307275283  0.49327795207591413  1.0000
  H   H196      1.0  0.9565443623730234  0.052857350053152174  0.4931124586324317  1.0000
  H   H197      1.0  0.5596782717288137  0.04343926078679772  0.0067983958632069925  1.0000
  H   H198      1.0  0.9472488821483935  0.9632980408880484  0.006856623614524269  1.0000
  H   H199      1.0  0.9632093133286262  0.5595159719950612  0.5067223606802003  1.0000
  H   H200      1.0  0.04345637180487219  0.9471428259071929  0.5068876226330303  1.0000
  H   H201      1.0  0.40279013029161354  0.06701570493824252  0.0737746384378397  1.0000
  H   H202      1.0  0.170822078549655  0.006806543841349812  0.07371585856918732  1.0000
  H   H203      1.0  0.006884926601763678  0.4028599905157222  0.573804113822483  1.0000
  H   H204      1.0  0.06702451449159942  0.17094181675483364  0.5737184663275984  1.0000
  H   H205      1.0  0.597207679977359  0.9329827312140252  0.9262231486148238  1.0000
  H   H206      1.0  0.8291780221786454  0.9931931943446768  0.9262848252280448  1.0000
  H   H207      1.0  0.9931135945789081  0.5971396684194162  0.42619438094852313  1.0000
  H   H208      1.0  0.9329744885145888  0.8290586254105679  0.4262817412419438  1.0000
  H   H209      1.0  0.3527801820279848  0.9004487619631761  0.14506003044925106  1.0000
  H   H210      1.0  0.29230052761949576  0.24459582118675624  0.14490690751915736  1.0000
  H   H211      1.0  0.24469363816325543  0.3527112219322106  0.6449986825786028  1.0000
  H   H212      1.0  0.9004695460108606  0.29228148987355235  0.6450040549994469  1.0000
  H   H213      1.0  0.6472170123443919  0.09955116139874322  0.8549389931742513  1.0000
  H   H214      1.0  0.707699573108812  0.7554039169992706  0.8550937762780821  1.0000
  H   H215      1.0  0.7553039254665422  0.6472848496835013  0.35499947551517863  1.0000
  H   H216      1.0  0.09952930372118372  0.7077183400112829  0.35499599998512826  1.0000
  H   H217      1.0  0.39435556303246255  0.7839068088806158  0.0715009049822086  1.0000
  H   H218      1.0  0.17713911634117346  0.2876296898204273  0.07142814017318237  1.0000
  H   H219      1.0  0.2877002958730089  0.39438587953939214  0.571498400709693  1.0000
  H   H220      1.0  0.7839176143872493  0.1771527383911859  0.571442894236327  1.0000
  H   H221      1.0  0.6056435756948702  0.21609232058138872  0.928498821133232  1.0000
  H   H222      1.0  0.8228614266565587  0.7123699602233343  0.9285723673398891  1.0000
  H   H223      1.0  0.7122991318496119  0.6056125494997816  0.42850099653661994  1.0000
  H   H224      1.0  0.21608196660952236  0.8228463029285606  0.428556655594953  1.0000
  C   C1        1.0  0.5483784537663896  0.4426405183517871  0.81579195064689  1.0000
  C   C2        1.0  0.7673469574542651  0.373130975880798  0.8158490941915134  1.0000
  C   C3        1.0  0.37320904644994374  0.5484325357558718  0.315830765484769  1.0000
  C   C4        1.0  0.44266734451810663  0.7673338517517436  0.3158478115544838  1.0000
  C   C5        1.0  0.4516230891383302  0.5573596540520142  0.18420893571538946  1.0000
  C   C6        1.0  0.23265262354250638  0.6268680654389414  0.1841504556397666  1.0000
  C   C7        1.0  0.6267910542783569  0.451567202430148  0.6841699183124632  1.0000
  C   C8        1.0  0.5573325430269379  0.23266641412914174  0.6841520434467299  1.0000
  C   C9        1.0  0.48280778997563106  0.4617299126197807  0.7730332692087033  1.0000
  C   C10       1.0  0.7901048423996572  0.3112306816241101  0.773064823097414  1.0000
  C   C11       1.0  0.311328002763311  0.48288770761151756  0.27301691809243067  1.0000
  C   C12       1.0  0.46179648497701464  0.7901084459841455  0.2730818908674237  1.0000
  C   C13       1.0  0.5171935617489255  0.5382697338674376  0.22696804340119306  1.0000
  C   C14       1.0  0.209894891871251  0.6887689719762022  0.22693487931883283  1.0000
  C   C15       1.0  0.6886723869602848  0.5171113301516783  0.726983436835674  1.0000
  C   C16       1.0  0.5382035558421736  0.2098924321773055  0.726918116718757  1.0000
  C   C17       1.0  0.4826454012409656  0.5429829744217615  0.7752193438522283  1.0000
  C   C18       1.0  0.7924468347065172  0.23218194240746473  0.7752577298326743  1.0000
  C   C19       1.0  0.2322429775898628  0.482748541294292  0.27517820692533235  1.0000
  C   C20       1.0  0.5430642472672886  0.7924650708924759  0.27529592061237207  1.0000
  C   C21       1.0  0.5173554483050538  0.45701790018313904  0.2247814688307699  1.0000
  C   C22       1.0  0.20755230402081543  0.7678171870545398  0.22474199628276637  1.0000
  C   C23       1.0  0.7677571610444646  0.5172511105277451  0.7248218980393233  1.0000
  C   C24       1.0  0.45693535128246765  0.20753589541123324  0.7247042632579694  1.0000
  C   C25       1.0  0.5503651325667963  0.6019190957344093  0.8208386794079844  1.0000
  C   C26       1.0  0.7703460431627962  0.21887749753852853  0.8208777117138766  1.0000
  C   C27       1.0  0.2189264773606326  0.5504686208180587  0.320782069497632  1.0000
  C   C28       1.0  0.6019554856908159  0.7703669879089927  0.3209175841715108  1.0000
  C   C29       1.0  0.449635121435648  0.3980812547321903  0.1791621569742148  1.0000
  C   C30       1.0  0.2296534021128238  0.7811228564846145  0.17912231957149768  1.0000
  C   C31       1.0  0.7810739502689756  0.4495303305811547  0.6792177065978963  1.0000
  C   C32       1.0  0.39804526604007157  0.2296351130353216  0.6790831311330123  1.0000
  C   C33       1.0  0.6134318373827841  0.577738201575066  0.8616244183103846  1.0000
  C   C34       1.0  0.7481188521346952  0.2838943700104012  0.8616925691039796  1.0000
  C   C35       1.0  0.28393451157523236  0.6134890594866319  0.36164499862013605  1.0000
  C   C36       1.0  0.5777398747532702  0.7481130781832164  0.36170640674519206  1.0000
  C   C37       1.0  0.38656930115852367  0.42226197260701076  0.1383760655034791  1.0000
  C   C38       1.0  0.25188088213621285  0.7161052835899113  0.13830713331226716  1.0000
  C   C39       1.0  0.7160650315155197  0.3865100681971043  0.6383551300437206  1.0000
  C   C40       1.0  0.4222605704293373  0.2518877981999665  0.6382940033893975  1.0000
  C   C41       1.0  0.4134327341650846  0.5669935655355829  0.7304288267009228  1.0000
  C   C42       1.0  0.8168869742635607  0.163378267875153  0.7304678778638447  1.0000
  C   C43       1.0  0.16342007982271411  0.41352943310229057  0.23039855181949784  1.0000
  C   C44       1.0  0.56710750859925  0.816917914999017  0.23053067277286482  1.0000
  C   C45       1.0  0.586566962199811  0.4330061744287192  0.2695714545478936  1.0000
  C   C46       1.0  0.1831134533660476  0.8366206835240604  0.2695318982316834  1.0000
  C   C47       1.0  0.8365802120857497  0.5864708310003122  0.7696017057301249  1.0000
  C   C48       1.0  0.43289283876822554  0.18308418772357268  0.7694696399832425  1.0000
  C   C49       1.0  0.4408200438255463  0.5930132389657318  0.6862969761950453  1.0000
  C   C50       1.0  0.7453613227622569  0.09323398455453705  0.6862869958653944  1.0000
  C   C51       1.0  0.09325896210317099  0.4408826827204351  0.18624903258188397  1.0000
  C   C52       1.0  0.593073469754465  0.7453930216765984  0.18634974371333615  1.0000
  C   C53       1.0  0.5591802101768978  0.4069871115008681  0.3137038601871538  1.0000
  C   C54       1.0  0.254638624691907  0.9067651413509167  0.31371353534687063  1.0000
  C   C55       1.0  0.9067415209854559  0.559118107298758  0.8137507987201289  1.0000
  C   C56       1.0  0.4069264556965992  0.25460715784029736  0.813649532455294  1.0000
  C   C57       1.0  0.3684705285642877  0.6192656328264973  0.6428420940690529  1.0000
  C   C58       1.0  0.7742873430556616  0.023548698411843802  0.642836271788461  1.0000
  C   C59       1.0  0.02350492969521412  0.3685400513058211  0.14285949326136924  1.0000
  C   C60       1.0  0.6193611156030556  0.7743243742294865  0.14292230683442145  1.0000
  C   C61       1.0  0.6315301298015684  0.38073471586182706  0.35715914486156203  1.0000
  C   C62       1.0  0.2257122000350833  0.9764504292718853  0.3571638568753954  1.0000
  C   C63       1.0  0.9764955533934131  0.6314607387133648  0.8571403380406439  1.0000
  C   C64       1.0  0.38063907849028294  0.22567711621253034  0.8570778533367188  1.0000
  C   C65       1.0  0.3920954643267793  0.6434069819466616  0.597751651099145  1.0000
  C   C66       1.0  0.7055818296623998  0.9543205831405787  0.5976992279790637  1.0000
  C   C67       1.0  0.9542644313111028  0.39211934220427486  0.0977530895379743  1.0000
  C   C68       1.0  0.6434616371176461  0.7056198349929658  0.09779127817803605  1.0000
  C   C69       1.0  0.6079050962239451  0.35659459308106994  0.402249490452995  1.0000
  C   C70       1.0  0.2944183089719274  0.04567906868145851  0.40230087698559197  1.0000
  C   C71       1.0  0.045736013871497595  0.607881534178901  0.9022473205966152  1.0000
  C   C72       1.0  0.35653796143211036  0.2943811313107503  0.9022089056923052  1.0000
  C   C73       1.0  0.4138904209461955  0.5845951070486206  0.5518896214408784  1.0000
  C   C74       1.0  0.6379582882816096  0.9672630724189658  0.5518444127683821  1.0000
  C   C75       1.0  0.9672141374835235  0.4138945495900117  0.051892420427222405  1.0000
  C   C76       1.0  0.5846260421426238  0.6379817097725392  0.05191813253826882  1.0000
  C   C77       1.0  0.5861099863303921  0.41540585569853755  0.4481113675262876  1.0000
  C   C78       1.0  0.36204156135742255  0.032737279825902015  0.44815602106540825  1.0000
  C   C79       1.0  0.032786749968508326  0.5861062386508991  0.9481078134231992  1.0000
  C   C80       1.0  0.41537396077054467  0.3620192547528943  0.9480824538804882  1.0000
  C   C81       1.0  0.43666057053638246  0.6091248682973216  0.5114443209774465  1.0000
  C   C82       1.0  0.5747326219946559  0.9022739619224396  0.5113704254862982  1.0000
  C   C83       1.0  0.9022522440442631  0.4366286354852987  0.011425468332113544  1.0000
  C   C84       1.0  0.6091024298856169  0.5747888087432288  0.011412512886764111  1.0000
  C   C85       1.0  0.563340279009637  0.39087600630758607  0.4885564917055589  1.0000
  C   C86       1.0  0.4252672655503957  0.09772630395844571  0.4886294295149156  1.0000
  C   C87       1.0  0.09774804786420102  0.563371628617311  0.9885747892175093  1.0000
  C   C88       1.0  0.390897419753415  0.42521154350164636  0.9885879209470261  1.0000
  C   C89       1.0  0.41759910024784824  0.7441159662112539  0.5575309323321845  1.0000
  C   C90       1.0  0.6398669132041024  0.8133574924119812  0.5574349347657943  1.0000
  C   C91       1.0  0.8133233186722465  0.41755627786324834  0.05748342344235619  1.0000
  C   C92       1.0  0.744099197951293  0.6399207609266496  0.05745879589165531  1.0000
  C   C93       1.0  0.5824011537545959  0.2558843842553387  0.4424699040500145  1.0000
  C   C94       1.0  0.3601325699775303  0.18664277524717224  0.44256451768700344  1.0000
  C   C95       1.0  0.18667712651036095  0.5824445985199276  0.9425169866922333  1.0000
  C   C96       1.0  0.2559012851373341  0.36008002909253634  0.9425410354103579  1.0000
  C   C97       1.0  0.3950502388534431  0.724858673889976  0.6003594401461996  1.0000
  C   C98       1.0  0.7052543082724158  0.8754553668959274  0.6002829181615326  1.0000
  C   C99       1.0  0.875396372707769  0.39503864125639154  0.10033321617436293  1.0000
  C   C100      1.0  0.7248910105129767  0.7052685490422375  0.10034315411618878  1.0000
  C   C101      1.0  0.6049496107855888  0.2751416783548919  0.3996409936875907  1.0000
  C   C102      1.0  0.2947441370962167  0.12454446476717612  0.3997167342746267  1.0000
  C   C103      1.0  0.124604919107675  0.6049621452062511  0.8996674202244678  1.0000
  C   C104      1.0  0.27510877921694304  0.2947329431780545  0.8996566035065428  1.0000
  C   C105      1.0  0.20176411670546934  0.5278452576971303  0.7620095072069619  1.0000
  C   C106      1.0  0.06019206808176143  0.23420922366670988  0.7620999930198451  1.0000
  C   C107      1.0  0.23418032634197067  0.20180179510465723  0.2620754659614022  1.0000
  C   C108      1.0  0.5277829536319559  0.06018536264789281  0.2621076107856766  1.0000
  C   C109      1.0  0.798236021928851  0.4721543941249138  0.2379905977576939  1.0000
  C   C110      1.0  0.9398094748229583  0.7657909487370915  0.2379008933424345  1.0000
  C   C111      1.0  0.7658202166557687  0.7981978549391043  0.7379250415516695  1.0000
  C   C112      1.0  0.472215453830657  0.9398145553792076  0.7378926204830591  1.0000
  C   C113      1.0  0.26471334739115815  0.5933694957288296  0.8018007467775448  1.0000
  C   C114      1.0  0.03709367305863505  0.20852376229046846  0.8019299695398701  1.0000
  C   C115      1.0  0.20849913163425535  0.2647157277079159  0.3019088531981069  1.0000
  C   C116      1.0  0.5932921442108423  0.0370847450516436  0.301909079964112  1.0000
  C   C117      1.0  0.7352869066112858  0.40663085473777016  0.19820008960465427  1.0000
  C   C118      1.0  0.9629070435662683  0.791474488685914  0.19806947768652347  1.0000
  C   C119      1.0  0.7915021426281968  0.7352831337707569  0.6980911491616695  1.0000
  C   C120      1.0  0.4067073389707901  0.9629155226075096  0.6980903724886858  1.0000
  C   C121      1.0  0.3328450988517489  0.5825293801043115  0.8483655710470899  1.0000
  C   C122      1.0  0.015518337425319908  0.26594284336550805  0.8484767630050315  1.0000
  C   C123      1.0  0.2659151677706788  0.33284437006478373  0.34848240803152203  1.0000
  C   C124      1.0  0.5824450786126789  0.015490525837577701  0.34846149101687723  1.0000
  C   C125      1.0  0.6671546354191592  0.4174702734960007  0.1516341313691569  1.0000
  C   C126      1.0  0.9844818012090002  0.7340568084565288  0.15152334195963135  1.0000
  C   C127      1.0  0.7340851620438046  0.6671558076738434  0.6515172706855239  1.0000
  C   C128      1.0  0.4175539243935091  0.9845099163278233  0.6515387165526646  1.0000
  C   C129      1.0  0.33325643121916243  0.5045020996882955  0.8524185136280169  1.0000
  C   C130      1.0  0.01913887515784304  0.34803376431863586  0.8525174199064837  1.0000
  C   C131      1.0  0.3480111770192665  0.33324504510384406  0.35252906062770967  1.0000
  C   C132      1.0  0.5044004321144585  0.0190961901086837  0.3525044135642191  1.0000
  C   C133      1.0  0.6667443029587332  0.49549807627204945  0.14758156763744512  1.0000
  C   C134      1.0  0.9808609948342094  0.6519645765782797  0.1474818010556617  1.0000
  C   C135      1.0  0.6519891527952171  0.6667551326347763  0.6474706180893365  1.0000
  C   C136      1.0  0.4955987620718861  0.9809047779733006  0.6474953677577063  1.0000
  C   C137      1.0  0.2681962256973094  0.4415605583613668  0.8103827254640663  1.0000
  C   C138      1.0  0.04211086968253145  0.3688794973176072  0.810449872174985  1.0000
  C   C139      1.0  0.3688630177419513  0.26821356264163404  0.31046032461832607  1.0000
  C   C140      1.0  0.44147571001105496  0.042080545850183185  0.3104567122351511  1.0000
  C   C141      1.0  0.7318036997537618  0.5584396211555286  0.1896165507045637  1.0000
  C   C142      1.0  0.9578892310457691  0.6311202408684197  0.1895508116222473  1.0000
  C   C143      1.0  0.6311368698030935  0.7317867032392441  0.6895395303828807  1.0000
  C   C144      1.0  0.5585229864468532  0.9579186717540792  0.6895431901644572  1.0000
  C   C145      1.0  0.4014514116592241  0.6525092547256648  0.8920553175532576  1.0000
  C   C146      1.0  0.9905885295157121  0.2396340613493421  0.8921353893087128  1.0000
  C   C147      1.0  0.2396124036275182  0.4014665557912591  0.39213506555470456  1.0000
  C   C148      1.0  0.6524502994995133  0.9905701510268231  0.3921079587743961  1.0000
  C   C149      1.0  0.5985485137918404  0.3474909247912308  0.10794395861537252  1.0000
  C   C150      1.0  0.009411340476340443  0.7603642795475734  0.10786383165343942  1.0000
  C   C151      1.0  0.7603870795541213  0.5985337118679012  0.6078643868980933  1.0000
  C   C152      1.0  0.3475494347713948  0.009429502573489406  0.6078917436418507  1.0000
  C   C153      1.0  0.3746063346579192  0.7207824420360609  0.9379642357947803  1.0000
  C   C154      1.0  0.06333499630707728  0.21721222889549804  0.9379938412238006  1.0000
  C   C155      1.0  0.2172383869927189  0.37466322681405734  0.4380460022653737  1.0000
  C   C156      1.0  0.7207553533419502  0.0633408373723157  0.4379364269125858  1.0000
  C   C157      1.0  0.6253933996129889  0.27921721156425855  0.062035466621466584  1.0000
  C   C158      1.0  0.9366649890531064  0.7827868106459661  0.062006111155888305  1.0000
  C   C159      1.0  0.7827616159204568  0.6253377377113764  0.5619545841533764  1.0000
  C   C160      1.0  0.27924407438067084  0.9366575916668579  0.5620629703337272  1.0000
  C   C161      1.0  0.4450038028582455  0.7929863287871299  0.9798295506575557  1.0000
  C   C162      1.0  0.034760575805052055  0.18690700649420927  0.9798384101306183  1.0000
  C   C163      1.0  0.1869413381072321  0.4451167224741964  0.47988830557046924  1.0000
  C   C164      1.0  0.792978724097445  0.034827960574801885  0.47977610536803883  1.0000
  C   C165      1.0  0.5549967401394866  0.20701332125663183  0.020170956855515954  1.0000
  C   C166      1.0  0.9652400050986999  0.8130925571855696  0.020161518549876644  1.0000
  C   C167      1.0  0.8130598383400952  0.5548833653438904  0.5201115994108177  1.0000
  C   C168      1.0  0.20702145244289477  0.9651716048832525  0.5202234207640473  1.0000
  C   C169      1.0  0.4214894819030519  0.8609462513201646  0.02601612632865612  1.0000
  C   C170      1.0  0.10445742469207892  0.1651186703172769  0.0259842938376167  1.0000
  C   C171      1.0  0.16520008687020765  0.42161529786313423  0.5260801831876095  1.0000
  C   C172      1.0  0.8609357033811665  0.10453470112313565  0.5259312552800779  1.0000
  C   C173      1.0  0.5785096947303002  0.1390527917778499  0.9739830209542077  1.0000
  C   C174      1.0  0.8955431562116731  0.8348808933624949  0.9740156348428715  1.0000
  C   C175      1.0  0.8348006852137004  0.5783847917332279  0.47391931924526887  1.0000
  C   C176      1.0  0.13906399298372216  0.8954650388411592  0.47406902596874545  1.0000
  C   C177      1.0  0.4223235358308699  0.941519912539867  0.02665884221183742  1.0000
  C   C178      1.0  0.10422832049812313  0.08518106716008592  0.026606005798491598  1.0000
  C   C179      1.0  0.08526810879007476  0.42245473120166815  0.5267207098747946  1.0000
  C   C180      1.0  0.9415163874608157  0.1043253390541778  0.5265660381752967  1.0000
  C   C181      1.0  0.5776741986260632  0.05847869634037291  0.9733401025059791  1.0000
  C   C182      1.0  0.8957715291409087  0.914819285084782  0.9733944280352914  1.0000
  C   C183      1.0  0.9147313743915647  0.5775455364574852  0.4732787425780032  1.0000
  C   C184      1.0  0.05848434671707988  0.8956748369061671  0.47343404309016535  1.0000
  C   C185      1.0  0.40030224762697497  0.0028197822420210988  0.0703300354981238  1.0000
  C   C186      1.0  0.16992214023995442  0.06754159331383389  0.0702604646133125  1.0000
  C   C187      1.0  0.06763529829653694  0.4003723721595803  0.5703627570476613  1.0000
  C   C188      1.0  0.002821548162614877  0.17001082461346329  0.5702588497720029  1.0000
  C   C189      1.0  0.5996955626419975  0.9971786539102466  0.9296677515545397  1.0000
  C   C190      1.0  0.8300775561249338  0.9324581466504683  0.9297398166355038  1.0000
  C   C191      1.0  0.9323640096078664  0.5996283368304418  0.4296352877765344  1.0000
  C   C192      1.0  0.9971788970199928  0.8299900517697123  0.4297415603625935  1.0000
  C   C193      1.0  0.374150700558971  0.909852808556138  0.1110530654294166  1.0000
  C   C194      1.0  0.2368866151750879  0.2012017813409415  0.11094313649141443  1.0000
  C   C195      1.0  0.2012991189064978  0.3741444401616718  0.6110357143102263  1.0000
  C   C196      1.0  0.9098642447527183  0.23690425944545976  0.6109884897520672  1.0000
  C   C197      1.0  0.6258472629841452  0.09014623987669523  0.8889448742082068  1.0000
  C   C198      1.0  0.7631134855532125  0.7987979568450853  0.8890575473058177  1.0000
  C   C199      1.0  0.7986990957258869  0.6258539942123276  0.38896247529084593  1.0000
  C   C200      1.0  0.09013574060745819  0.7630947800960044  0.3890114626276216  1.0000
  C   C201      1.0  0.3967034076790767  0.8456367561565371  0.0698205294201841  1.0000
  C   C202      1.0  0.1730902169805617  0.22421146369914877  0.0697466648973588  1.0000
  C   C203      1.0  0.22429540372216658  0.39675814427462786  0.5698364268282603  1.0000
  C   C204      1.0  0.8456477084002856  0.1731210318480478  0.5697438766323799  1.0000
  C   C205      1.0  0.6032948465093998  0.1543625495899903  0.9301795492635849  1.0000
  C   C206      1.0  0.8269100749279019  0.7757888004034542  0.9302535926522637  1.0000
  C   C207      1.0  0.7757031773676106  0.603240374685079  0.43016274415380457  1.0000
  C   C208      1.0  0.15435187259647887  0.8268780094716917  0.43025567319890007  1.0000
  N   N1        1.0  0.6125544827921774  0.4996032449570364  0.8594754740165554  1.0000
  N   N2        1.0  0.7468868786802785  0.3598760586882861  0.8595491393641054  1.0000
  N   N3        1.0  0.35994437446660044  0.6125801243927353  0.35953540753482827  1.0000
  N   N4        1.0  0.4995934917958564  0.746871556217556  0.35954649588128956  1.0000
  N   N5        1.0  0.38744709801856203  0.5003968410827754  0.14052483351314748  1.0000
  N   N6        1.0  0.25311300886477284  0.640124207192592  0.1404507156371082  1.0000
  N   N7        1.0  0.6400557641677198  0.38741952742930147  0.6404646974298276  1.0000
  N   N8        1.0  0.5004069912927706  0.25312923380163005  0.6404533354207231  1.0000
  N   N9        1.0  0.4381200051246098  0.6873296125751622  0.513808956952147  1.0000
  N   N10       1.0  0.5756427800258522  0.8264173717169356  0.513727432468265  1.0000
  N   N11       1.0  0.8263932117861686  0.4380749761548869  0.013772148165358442  1.0000
  N   N12       1.0  0.687286252738936  0.575691719439696  0.013731776844686272  1.0000
  N   N13       1.0  0.5618798066084026  0.3126708260336953  0.48619205571422  1.0000
  N   N14       1.0  0.4243559922440881  0.17358167315935447  0.4862713122661831  1.0000
  N   N15       1.0  0.17360723339643863  0.5619259002282888  0.9862282619692309  1.0000
  N   N16       1.0  0.3127137501742396  0.4243092450857375  0.9862688095740708  1.0000
  N   N17       1.0  0.2035906515055856  0.4529170762058072  0.7659680996608529  1.0000
  N   N18       1.0  0.06228419217208635  0.3130880127902103  0.7660248793715497  1.0000
  N   N19       1.0  0.3130629445085305  0.20362979047575896  0.266012156936995  1.0000
  N   N20       1.0  0.45282915104698424  0.06227454334557337  0.2660361476268065  1.0000
  N   N21       1.0  0.7964096404028782  0.5470831878968029  0.23403215788876963  1.0000
  N   N22       1.0  0.9377167930950778  0.6869115491112938  0.23397545185735422  1.0000
  N   N23       1.0  0.6869366364882339  0.7963692508439876  0.7339873928942781  1.0000
  N   N24       1.0  0.547169447595792  0.9377259005981029  0.7339636573943269  1.0000
  N   N25       1.0  0.3762633137259854  0.9872598198167992  0.11175396768359751  1.0000
  N   N26       1.0  0.2354222687322647  0.12450151061689499  0.11165336803146178  1.0000
  N   N27       1.0  0.12459014263765775  0.3762659809975659  0.6117402737371763  1.0000
  N   N28       1.0  0.9872751739216029  0.23547334363650657  0.6116831530798734  1.0000
  N   N29       1.0  0.6237337652782672  0.012739404900557404  0.8882443245223612  1.0000
  N   N30       1.0  0.764576985363192  0.8754983174896721  0.8883470895015222  1.0000
  N   N31       1.0  0.875407225361883  0.6237325432969666  0.38825768959965495  1.0000
  N   N32       1.0  0.012724369169149007  0.7645257840472226  0.388316975583983  1.0000
  Cl  Cl1       1.0  0.6124591171973891  0.3625415535859133  0.9381875227023501  1.0000
  Cl  Cl2       1.0  0.8257063328523488  0.5756157639910028  0.9381956581386746  1.0000
  Cl  Cl3       1.0  0.5756037458918614  0.6124572370135226  0.43817166703082233  1.0000
  Cl  Cl4       1.0  0.36249671851241067  0.8256689058247841  0.4381740111171197  1.0000
  Cl  Cl5       1.0  0.3875409236218061  0.6374593245755378  0.061812484883830565  1.0000
  Cl  Cl6       1.0  0.1742949589631024  0.4243850224716396  0.06180497826016308  1.0000
  Cl  Cl7       1.0  0.4243956993837585  0.3875431170096206  0.5618283642545522  1.0000
  Cl  Cl8       1.0  0.6375031690326339  0.17433136005609381  0.561825843884094  1.0000
  Cl  Cl9       1.0  0.9909050986480851  0.4544199314527973  0.6893881748272151  1.0000
  Cl  Cl10      1.0  0.19846927986758803  0.23490778295874287  0.6894197035737619  1.0000
  Cl  Cl11      1.0  0.23482037862496002  0.990952844470918  0.18936286651150883  1.0000
  Cl  Cl12      1.0  0.45446689578729144  0.19846517670504227  0.1894557786035378  1.0000
  Cl  Cl13      1.0  0.009095635529803272  0.5455802445075547  0.3106119064382398  1.0000
  Cl  Cl14      1.0  0.80153045440332  0.7650918706415694  0.31057999884248483  1.0000
  Cl  Cl15      1.0  0.7651793177399284  0.009046895493384  0.8106374147373144  1.0000
  Cl  Cl16      1.0  0.5455334939363041  0.8015338610581536  0.8105445763245599  1.0000
