data_image0
_chemical_formula_structural       C20H16N8O28S2Yb4
_chemical_formula_sum              "C20 H16 N8 O28 S2 Yb4"
_cell_length_a       6.554474618971031
_cell_length_b       10.893757501351805
_cell_length_c       12.956309925375248
_cell_angle_alpha    105.36841129414371
_cell_angle_beta     90.00564080590895
_cell_angle_gamma    107.48403878804709

_space_group_name_H-M_alt    "P 1"
_space_group_IT_number       1

loop_
  _space_group_symop_operation_xyz
  'x, y, z'

loop_
  _atom_site_type_symbol
  _atom_site_label
  _atom_site_symmetry_multiplicity
  _atom_site_fract_x
  _atom_site_fract_y
  _atom_site_fract_z
  _atom_site_occupancy
  C   C1        1.0  0.6368053716174771  0.7391802354318033  0.9642544058885892  1.0000
  C   C2        1.0  0.8976257143764457  0.26061403274987793  0.5357473694551518  1.0000
  C   C3        1.0  0.36319360409571294  0.2608212038947003  0.03574466678470861  1.0000
  C   C4        1.0  0.10237610591504887  0.7393869924561118  0.464253307173813  1.0000
  C   C5        1.0  0.8068705883596439  0.6748685994182966  0.954669941607236  1.0000
  C   C6        1.0  0.13194450799452548  0.3249959474410532  0.5453791126395588  1.0000
  C   C7        1.0  0.19312965030292875  0.3251292606028003  0.045329922661252915  1.0000
  C   C8        1.0  0.8680600764027703  0.6750075570137926  0.4546175585110961  1.0000
  C   C9        1.0  0.4362899977557363  0.8384607934738784  0.9079102498466161  1.0000
  C   C10       1.0  0.5978453442145623  0.16145999145742718  0.5920302852001245  1.0000
  C   C11       1.0  0.5637117533824495  0.16154009287857463  0.09209283421635923  1.0000
  C   C12       1.0  0.40215723231474254  0.8385425469142266  0.407972001326087  1.0000
  C   C13       1.0  0.4354053552739359  0.6972132910971356  0.13225878805638305  1.0000
  C   C14       1.0  0.7381956365827165  0.3027851288013253  0.3677408406234194  1.0000
  C   C15       1.0  0.5645944019846214  0.30278360548314265  0.8677410732473593  1.0000
  C   C16       1.0  0.2618063902789914  0.6972163101206237  0.6322582320377921  1.0000
  C   C17       1.0  0.4892830847645372  0.7542186451686137  0.04027804214700841  1.0000
  C   C18       1.0  0.7352086918881187  0.2456614193357681  0.4596793050755538  1.0000
  C   C19       1.0  0.5107155469615493  0.24578210557949393  0.9597218310277926  1.0000
  C   C20       1.0  0.2647897332677546  0.7543389176963731  0.5403221720670005  1.0000
  H   H1        1.0  0.3630824557411503  0.8865150666833446  0.8616565750610976  1.0000
  H   H2        1.0  0.47654264101154814  0.11355153562671222  0.6382810868048028  1.0000
  H   H3        1.0  0.6369159694147228  0.1134852703487965  0.13834490208145675  1.0000
  H   H4        1.0  0.523460347768456  0.8864518273322305  0.3617236101201585  1.0000
  H   H5        1.0  0.24843118332381678  0.8487049271742538  0.043442401446633014  1.0000
  H   H6        1.0  0.39993923927735153  0.15132699073086547  0.45644522401684645  1.0000
  H   H7        1.0  0.7515672418320635  0.15129540985788753  0.9565590756959284  1.0000
  H   H8        1.0  0.6000602300487686  0.8486723826581797  0.5435562501549216  1.0000
  H   H9        1.0  0.4816362139122746  0.43190007063986985  0.6509915680233224  1.0000
  H   H10       1.0  0.049621414412868665  0.5679842784649483  0.8492572421821979  1.0000
  H   H11       1.0  0.5183640247502908  0.5680977893812342  0.3490082962451596  1.0000
  H   H12       1.0  0.9503777118158611  0.4320144091903517  0.15073941415682415  1.0000
  H   H13       1.0  0.6540253056010387  0.4410315556250881  0.7372983600837916  1.0000
  H   H14       1.0  0.21255184749519887  0.5588202243081001  0.7628432128091874  1.0000
  H   H15       1.0  0.34597908443495856  0.5589685057355214  0.2627023135683474  1.0000
  H   H16       1.0  0.7874512235367561  0.441180250970753  0.23715585688123758  1.0000
  N   N1        1.0  0.5988967353023896  0.7896950115983048  0.8816053320360526  1.0000
  N   N2        1.0  0.8091548200738858  0.2101140976688783  0.618374464561761  1.0000
  N   N3        1.0  0.4011037659850558  0.21030642752592144  0.11839374063120545  1.0000
  N   N4        1.0  0.19084893804256364  0.789887751922109  0.381628622459914  1.0000
  N   N5        1.0  0.36627596156832  0.8178923361889691  0.002133353753443101  1.0000
  N   N6        1.0  0.5485289976671055  0.18205358313115746  0.4977907836400847  1.0000
  N   N7        1.0  0.6337228889368944  0.182105798896835  0.9978673139873353  1.0000
  N   N8        1.0  0.45147371627909666  0.817949230102933  0.5022123063523767  1.0000
  O   O1        1.0  0.8791593899128998  0.6533524997861377  0.8613413501645157  1.0000
  O   O2        1.0  0.22570432996792536  0.34652470255909423  0.6387352449196941  1.0000
  O   O3        1.0  0.12084208728121129  0.3466478396860992  0.13865450863170287  1.0000
  O   O4        1.0  0.7743029046463832  0.653474944680994  0.3612670326881117  1.0000
  O   O5        1.0  0.04937008108856139  0.9145900499063375  0.8009600824681871  1.0000
  O   O6        1.0  0.1349540136650021  0.08517923289677763  0.699064069495208  1.0000
  O   O7        1.0  0.9506269690085959  0.08540753565688423  0.19903897834613107  1.0000
  O   O8        1.0  0.8650431738490599  0.9148186275288741  0.3009357947853602  1.0000
  O   O9        1.0  0.788993364301902  0.9031074421464284  0.6694392289328236  1.0000
  O   O10       1.0  0.8855212243259845  0.09676130188695722  0.8302853740652767  1.0000
  O   O11       1.0  0.21100401668373087  0.09689385852880866  0.3305622511805241  1.0000
  O   O12       1.0  0.11447949574059625  0.9032375215749654  0.16971449316795176  1.0000
  O   O13       1.0  0.8786058357494541  0.6448203781853011  0.03127633472887941  1.0000
  O   O14       1.0  0.2336539213438443  0.35507740367381785  0.4687882142378046  1.0000
  O   O15       1.0  0.1213814990256453  0.3551791385201357  0.9687171137229672  1.0000
  O   O16       1.0  0.7663440093093784  0.6449249964511383  0.5312164797405361  1.0000
  O   O17       1.0  0.24629403393204544  0.6766967037338959  0.16159065684691146  1.0000
  O   O18       1.0  0.569443185101612  0.3232226288134471  0.3384934720631706  1.0000
  O   O19       1.0  0.7537048857264781  0.32330157020544464  0.8384076034598638  1.0000
  O   O20       1.0  0.4305571909778579  0.6767755060700794  0.6615071956715682  1.0000
  O   O21       1.0  0.5778094673555286  0.6661077044671019  0.17657871945117887  1.0000
  O   O22       1.0  0.9116721726474781  0.33410800120855555  0.323448547887999  1.0000
  O   O23       1.0  0.4221872265456029  0.333892221896001  0.8234187433309191  1.0000
  O   O24       1.0  0.08832592161992643  0.6658886207115701  0.6765505099555329  1.0000
  O   O25       1.0  0.6359464792593884  0.48059961585531163  0.6794525998420371  1.0000
  O   O26       1.0  0.15528713914710582  0.5192926770401983  0.8207559829250359  1.0000
  O   O27       1.0  0.3640531966369451  0.5194001712496998  0.3205472703619777  1.0000
  O   O28       1.0  0.8447105989242732  0.4807062856798085  0.17924147688627567  1.0000
  S   S1        1.0  0.9683793591908628  0.9999022465226947  0.7499328530707603  1.0000
  S   S2        1.0  0.031619972718360125  9.6852003927942e-05  0.2500678176347578  1.0000
  Yb  Yb1       1.0  0.773382813974834  0.705413003370744  0.7124883148055333  1.0000
  Yb  Yb2       1.0  0.06788444111705877  0.29443176375651364  0.7874711315639619  1.0000
  Yb  Yb3       1.0  0.22661519893033955  0.2945865090741152  0.28751075193827813  1.0000
  Yb  Yb4       1.0  0.9321147533752666  0.7055670599076791  0.21252873567531347  1.0000
