data_image0
_chemical_formula_structural       C24H32O28Yb4
_chemical_formula_sum              "C24 H32 O28 Yb4"
_cell_length_a       7.551985048708346
_cell_length_b       10.573953966747872
_cell_length_c       12.604255895331457
_cell_angle_alpha    72.12753900358703
_cell_angle_beta     72.56959956812463
_cell_angle_gamma    69.0854363675967

_space_group_name_H-M_alt    "P 1"
_space_group_IT_number       1

loop_
  _space_group_symop_operation_xyz
  'x, y, z'

loop_
  _atom_site_type_symbol
  _atom_site_label
  _atom_site_symmetry_multiplicity
  _atom_site_fract_x
  _atom_site_fract_y
  _atom_site_fract_z
  _atom_site_occupancy
  C   C1        1.0  0.06537768504433951  0.7320923024653324  0.961658928382171  1.0000
  C   C2        1.0  0.7591448532592576  0.7677393839469389  0.5383540485976113  1.0000
  C   C3        1.0  0.9346200309361736  0.26790741093576287  0.0383437867836065  1.0000
  C   C4        1.0  0.24085359459239453  0.23226227828065046  0.4616452541603238  1.0000
  C   C5        1.0  0.10633679002113898  0.7572664301599871  0.06245183986593619  1.0000
  C   C6        1.0  0.9260425429165197  0.7425500045660909  0.4375456299539308  1.0000
  C   C7        1.0  0.8936627565236606  0.24273227112812634  0.9375508744136878  1.0000
  C   C8        1.0  0.07395824194404106  0.2574496333669103  0.5624536710292958  1.0000
  C   C9        1.0  0.30458831869373165  0.5124800748672129  0.14692266625917938  1.0000
  C   C10       1.0  0.9640167985391133  0.9873908586324588  0.35310940904493276  1.0000
  C   C11       1.0  0.6954116501432711  0.48752034108617426  0.853077488936698  1.0000
  C   C12       1.0  0.035982155757160794  0.012609791413531534  0.6468898928244471  1.0000
  C   C13       1.0  0.3015106010470846  0.6627863415964298  0.09171268252762839  1.0000
  C   C14       1.0  0.055962128859939064  0.837061976851224  0.4083203275096706  1.0000
  C   C15       1.0  0.6984898758860185  0.3372148524459605  0.9082883268832871  1.0000
  C   C16       1.0  0.9440386560006219  0.16293766108177715  0.5916789734735559  1.0000
  C   C17       1.0  0.316577342256366  0.606847356472656  0.60694156919115  1.0000
  C   C18       1.0  0.5304639523507789  0.89310447643377  0.8930621642236644  1.0000
  C   C19       1.0  0.6834201768584619  0.3931536032712728  0.39306029353907945  1.0000
  C   C20       1.0  0.4695366356441042  0.10689640784205783  0.10693628432401427  1.0000
  C   C21       1.0  0.505146817571742  0.5507092605251033  0.5295789327212646  1.0000
  C   C22       1.0  0.585431860473584  0.9492660716221621  0.9704593918249103  1.0000
  C   C23       1.0  0.49485151756665174  0.4492909211984398  0.47042207579631407  1.0000
  C   C24       1.0  0.41456954519634337  0.050735824903895804  0.029539057613717997  1.0000
  H   H1        1.0  0.9874330920010338  0.7435531657293736  0.1361599105522941  1.0000
  H   H2        1.0  0.8670797204294373  0.75625533257044  0.36385351142406813  1.0000
  H   H3        1.0  0.012566764122702613  0.25644576971996014  0.8638419504032341  1.0000
  H   H4        1.0  0.1329205579865089  0.24374531754416756  0.6361457904477134  1.0000
  H   H5        1.0  0.10884003901529112  0.8656492502668203  0.0393694661927597  1.0000
  H   H6        1.0  0.013823014874759655  0.6341513719051761  0.4605785885397609  1.0000
  H   H7        1.0  0.8911588025677233  0.13434991927511672  0.9606315414362712  1.0000
  H   H8        1.0  0.9861764475176215  0.36585005622981  0.5394215675446645  1.0000
  H   H9        1.0  0.4196533899761333  0.6630164921433916  0.015325535394047999  1.0000
  H   H10       1.0  0.09787436409809668  0.8368185329422317  0.4847384721737241  1.0000
  H   H11       1.0  0.5803447482965821  0.33698493592297757  0.9846746206879827  1.0000
  H   H12       1.0  0.9021275480164521  0.1631823514022201  0.515259976376349  1.0000
  H   H13       1.0  0.34033662779643953  0.7021775240721695  0.1504480659829994  1.0000
  H   H14       1.0  0.19291872813688837  0.7976913335280076  0.3496100243237237  1.0000
  H   H15       1.0  0.6596646651602286  0.29782289194983486  0.8495520892152726  1.0000
  H   H16       1.0  0.8070818598579949  0.2023095507478274  0.6503884242239549  1.0000
  H   H17       1.0  0.6168081885218799  0.5018384083341729  0.5812789053592836  1.0000
  H   H18       1.0  0.6999705441843606  0.9980931798862259  0.918803309504348  1.0000
  H   H19       1.0  0.3831888241483341  0.4981635635913548  0.4187229582594938  1.0000
  H   H20       1.0  0.30003035338946665  0.001907938550829203  0.0811942857192349  1.0000
  H   H21       1.0  0.5492135937886217  0.6388709781481198  0.4680102476367125  1.0000
  H   H22       1.0  0.6559758265677476  0.8611255756872895  0.03207218457097839  1.0000
  H   H23       1.0  0.4507807706422542  0.3611309936401668  0.5319916159772831  1.0000
  H   H24       1.0  0.3440274096664667  0.13887530872577977  0.9679262639814893  1.0000
  H   H25       1.0  0.1715129730078715  0.4234805803366371  0.9126718245922874  1.0000
  H   H26       1.0  0.5075734499168478  0.07657566257675805  0.5873150312403081  1.0000
  H   H27       1.0  0.82848617815408  0.5765188233665272  0.0873283297126477  1.0000
  H   H28       1.0  0.49242702536476896  0.9234237411950236  0.41268512306702115  1.0000
  H   H29       1.0  0.3365386638484296  0.5059576800937932  0.8520807709200469  1.0000
  H   H30       1.0  0.6945168182121937  0.9941018266095082  0.6478755837570701  1.0000
  H   H31       1.0  0.6634615018542432  0.4940414895167606  0.1479202367113714  1.0000
  H   H32       1.0  0.30548132006052253  0.005899601456860581  0.35212457232496064  1.0000
  O   O1        1.0  0.1627492001855871  0.7663678395199227  0.8600934945021947  1.0000
  O   O2        1.0  0.7891973827568391  0.7334836091185011  0.6399197244443185  1.0000
  O   O3        1.0  0.8372543170667228  0.2336290717034402  0.1399083646810126  1.0000
  O   O4        1.0  0.21080289565909988  0.26651704099610635  0.36007957742746305  1.0000
  O   O5        1.0  0.9314296474263705  0.6796437105145259  0.9730098507945755  1.0000
  O   O6        1.0  0.5841196325124187  0.820179808427177  0.5269838522997432  1.0000
  O   O7        1.0  0.06857001183168886  0.32035647127764116  0.0269911577253978  1.0000
  O   O8        1.0  0.4158816587927561  0.17981881732421814  0.47301544779493543  1.0000
  O   O9        1.0  0.30332501696015185  0.6967165273266217  0.6614194245602576  1.0000
  O   O10       1.0  0.6615863052986768  0.8033105829452295  0.8385427597743416  1.0000
  O   O11       1.0  0.6966703603599668  0.30328342009845244  0.3385824372766351  1.0000
  O   O12       1.0  0.3384144795618839  0.1966890549877718  0.1614565412088851  1.0000
  O   O13       1.0  0.16955765375668366  0.5684223987978997  0.6207074242182529  1.0000
  O   O14       1.0  0.35880272321792067  0.9314034202805245  0.8793331920862001  1.0000
  O   O15       1.0  0.8304406830331958  0.4315795731962453  0.3792944394029192  1.0000
  O   O16       1.0  0.6411982585083182  0.06859497130965049  0.1206669613325744  1.0000
  O   O17       1.0  0.15118174576581828  0.4813534717564352  0.16193595659427018  1.0000
  O   O18       1.0  0.7945338085030896  0.018580695613330492  0.3380447906362605  1.0000
  O   O19       1.0  0.8488190390947423  0.5186461661765662  0.8380633443889564  1.0000
  O   O20       1.0  0.20546565388929164  0.9814207325216557  0.6619553654481648  1.0000
  O   O21       1.0  0.22059831554101822  0.48930633414555297  0.8441682174851762  1.0000
  O   O22       1.0  0.5540422554988778  0.010680220510742836  0.6557735084240618  1.0000
  O   O23       1.0  0.7794013420655546  0.510692057376005  0.1558319359312037  1.0000
  O   O24       1.0  0.4459568956630733  0.9893191831924143  0.34422664588087304  1.0000
  O   O25       1.0  0.462564916594367  0.4272557176273252  0.17439830933579256  1.0000
  O   O26       1.0  0.06427443158724341  0.07260581779002712  0.3257045441273689  1.0000
  O   O27       1.0  0.537436882806922  0.572743686213073  0.8256018449739244  1.0000
  O   O28       1.0  0.9357255372497518  0.9273945981633603  0.6742956110685085  1.0000
  Yb  Yb1       1.0  0.9875556569645242  0.6887075909073347  0.7705852535222559  1.0000
  Yb  Yb2       1.0  0.4468152539026921  0.8113059282905222  0.7293794534116671  1.0000
  Yb  Yb3       1.0  0.012443495848913258  0.31129360306643855  0.22941575588627214  1.0000
  Yb  Yb4       1.0  0.5531865454985977  0.18869347554988286  0.2706207008980499  1.0000
