data_image0
_chemical_formula_structural       Zn16B8H152C184N80O32
_chemical_formula_sum              "Zn16 B8 H152 C184 N80 O32"
_cell_length_a       12.982703991075102
_cell_length_b       12.982722876074668
_cell_length_c       53.72468757200344
_cell_angle_alpha    90.00002022399326
_cell_angle_beta     89.99996426185997
_cell_angle_gamma    89.99961187795493

_space_group_name_H-M_alt    "P 1"
_space_group_IT_number       1

loop_
  _space_group_symop_operation_xyz
  'x, y, z'

loop_
  _atom_site_type_symbol
  _atom_site_label
  _atom_site_symmetry_multiplicity
  _atom_site_fract_x
  _atom_site_fract_y
  _atom_site_fract_z
  _atom_site_occupancy
  Zn  Zn1       1.0  0.14923621680277677  0.12650288032804013  0.8858672211064088  1.0000
  Zn  Zn2       1.0  0.32929391767531496  0.0696527253414772  0.6865662787497228  1.0000
  Zn  Zn3       1.0  0.8507623024673237  0.8734975210457845  0.3858674565767756  1.0000
  Zn  Zn4       1.0  0.6707066553920313  0.9303473848735847  0.18656636013500358  1.0000
  Zn  Zn5       1.0  0.3735215085207102  0.6492624809114391  0.13585560571065966  1.0000
  Zn  Zn6       1.0  0.43036549879452224  0.8292551616210985  0.936547654855488  1.0000
  Zn  Zn7       1.0  0.6264791951515819  0.3507367849670402  0.6358553172692467  1.0000
  Zn  Zn8       1.0  0.5696336601995924  0.1707476245509909  0.43654768672554667  1.0000
  Zn  Zn9       1.0  0.3507371321006616  0.626478598357359  0.3641445096493641  1.0000
  Zn  Zn10      1.0  0.17074605828705808  0.5696314945358195  0.5634521479826161  1.0000
  Zn  Zn11      1.0  0.649263753884057  0.3735210010200874  0.8641447781116653  1.0000
  Zn  Zn12      1.0  0.8292540615989381  0.4303676655734776  0.0634525350434245  1.0000
  Zn  Zn13      1.0  0.1265030405663623  0.14923799407171856  0.114132815018003  1.0000
  Zn  Zn14      1.0  0.0696542323495493  0.32929378145213656  0.3134333810538763  1.0000
  Zn  Zn15      1.0  0.873497719043897  0.8507635508357151  0.6141323457717289  1.0000
  Zn  Zn16      1.0  0.9303460139779175  0.670707284353988  0.8134332601316459  1.0000
  B   B1        1.0  0.2543131186107175  0.5338323213979165  0.8724951658059936  1.0000
  B   B2        1.0  0.7456869756122017  0.46616729018121106  0.3724951962758637  1.0000
  B   B3        1.0  0.9661627339975355  0.7543239403854471  0.12251719097754689  1.0000
  B   B4        1.0  0.03383877427882  0.24567607625973406  0.6225177276406625  1.0000
  B   B5        1.0  0.24567703334786728  0.0338374916192805  0.37748268062770035  1.0000
  B   B6        1.0  0.7543230480301728  0.9661621272459016  0.8774826114950542  1.0000
  B   B7        1.0  0.5338330667107982  0.25431319503789507  0.1275048534653038  1.0000
  B   B8        1.0  0.46616765846796687  0.7456860586413755  0.6275048090596727  1.0000
  H   H1        1.0  0.04533434359109379  0.5315037657459883  0.8532866937992267  1.0000
  H   H2        1.0  0.31425539072554204  0.709694280216155  0.842083823940925  1.0000
  H   H3        1.0  0.1561378897714079  0.7828936139616474  0.8116952025371871  1.0000
  H   H4        1.0  0.27475030001778583  0.3117378510001814  0.8658747347187796  1.0000
  H   H5        1.0  0.9929565518215925  0.3156891630721076  0.9050300502662552  1.0000
  H   H6        1.0  0.061072197972755815  0.5159838896064882  0.8997964086715767  1.0000
  H   H7        1.0  0.4612231691614497  0.4832097407585252  0.8896570905383995  1.0000
  H   H8        1.0  0.2975586139317627  0.47446015475733816  0.8214134297263911  1.0000
  H   H9        1.0  0.4924243211858866  0.3906157531818906  0.8149251466184565  1.0000
  H   H10       1.0  0.3143184399482237  0.9522358851553748  0.8890730326175457  1.0000
  H   H11       1.0  0.34702887402983856  0.016150225061885196  0.9655450961764629  1.0000
  H   H12       1.0  0.21665649216831182  0.16177418592995707  0.9439475925005281  1.0000
  H   H13       1.0  0.3127401154852478  0.7470932513519132  0.8854743059927015  1.0000
  H   H14       1.0  0.3854649752945675  0.6002093831098988  0.9531310860065503  1.0000
  H   H15       1.0  0.2895001239384669  0.4588718458105134  0.9216435146342263  1.0000
  H   H16       1.0  0.3751528455655516  0.18526476985301338  0.8080020724903251  1.0000
  H   H17       1.0  0.38424202627825105  0.1540917377061675  0.7618259061798865  1.0000
  H   H18       1.0  0.1329989402484841  0.9390573571311832  0.767759729759099  1.0000
  H   H19       1.0  0.12361166613976592  0.9717993981254053  0.8132976420983126  1.0000
  H   H20       1.0  0.9546658001019636  0.4684958177719665  0.3532866928979955  1.0000
  H   H21       1.0  0.6857440115570341  0.29030759770138564  0.3420832900650268  1.0000
  H   H22       1.0  0.8438623610350786  0.2171066790508576  0.31169519693447967  1.0000
  H   H23       1.0  0.7252490410028473  0.6882609806553787  0.3658746010835755  1.0000
  H   H24       1.0  0.007042688349727699  0.6843120365475529  0.40502965252273526  1.0000
  H   H25       1.0  0.9389278259303638  0.4840180726193424  0.39979603920322393  1.0000
  H   H26       1.0  0.5387761106064916  0.5167898958946324  0.38965715658293476  1.0000
  H   H27       1.0  0.7024423821039676  0.525539382195376  0.32141365792696064  1.0000
  H   H28       1.0  0.5075766915661006  0.6093822337828598  0.31492466687077325  1.0000
  H   H29       1.0  0.6856846925883033  0.04776760190395629  0.3890734087362303  1.0000
  H   H30       1.0  0.652970980528174  0.9838556844871391  0.4655453709384147  1.0000
  H   H31       1.0  0.7833411072556515  0.8382286110582837  0.4439483935503431  1.0000
  H   H32       1.0  0.6872584047970565  0.2529071494477435  0.3854743271007662  1.0000
  H   H33       1.0  0.6145333707373268  0.39979265703652084  0.453130944494056  1.0000
  H   H34       1.0  0.7104990734461653  0.5411293780792263  0.4216429984104407  1.0000
  H   H35       1.0  0.6248412526870839  0.8147416798206492  0.3080019648097759  1.0000
  H   H36       1.0  0.6157560421838184  0.8459123337334518  0.2618256163964787  1.0000
  H   H37       1.0  0.8670045047401942  0.06094056092378959  0.267760265744343  1.0000
  H   H38       1.0  0.8763878102913195  0.028198586467723892  0.31329817387329933  1.0000
  H   H39       1.0  0.96847038202975  0.5453184559865178  0.103320606784969  1.0000
  H   H40       1.0  0.7902962790090629  0.8142549311741974  0.09211740229858377  1.0000
  H   H41       1.0  0.7170871432087578  0.6561450270679361  0.0617274616784727  1.0000
  H   H42       1.0  0.18823459252782726  0.7747498670027967  0.11586574612935147  1.0000
  H   H43       1.0  0.18438575906783686  0.4929946840389121  0.1550367393025951  1.0000
  H   H44       1.0  0.9840802678475669  0.5611325310996094  0.1498403742482139  1.0000
  H   H45       1.0  0.016818945965361796  0.9612537141873573  0.13966041447752528  1.0000
  H   H46       1.0  0.025458774822226405  0.7975160262408636  0.07142808822582228  1.0000
  H   H47       1.0  0.1093220087117146  0.9923554505072756  0.0649204674328416  1.0000
  H   H48       1.0  0.5477388893199802  0.8143913518129223  0.1390826076565332  1.0000
  H   H49       1.0  0.48380053645082194  0.8469225504534776  0.2155576979673768  1.0000
  H   H50       1.0  0.3381965152120259  0.7165905839997818  0.19394026731833233  1.0000
  H   H51       1.0  0.7528879966186892  0.8127053376207911  0.13549727575302478  1.0000
  H   H52       1.0  0.899766156256426  0.8854708269492378  0.20315108138573373  1.0000
  H   H53       1.0  0.041131062680364  0.7895608584657621  0.17166021914253796  1.0000
  H   H54       1.0  0.31469180468778996  0.8751451309934525  0.05798918278981089  1.0000
  H   H55       1.0  0.3458640761419502  0.8842178187882366  0.011813761064239299  1.0000
  H   H56       1.0  0.5609202731808338  0.6329939860427983  0.017749180443289  1.0000
  H   H57       1.0  0.528190546807039  0.6236224443329591  0.06328709274977479  1.0000
  H   H58       1.0  0.03153117568393779  0.4546823028690739  0.6033207893537664  1.0000
  H   H59       1.0  0.20970376704973154  0.1857450410653954  0.5921171627462981  1.0000
  H   H60       1.0  0.2829099000959445  0.34385490078569336  0.5617264800149612  1.0000
  H   H61       1.0  0.8117677031355444  0.22525013992223106  0.615865418994801  1.0000
  H   H62       1.0  0.8156141249487375  0.5070046098636425  0.6550368078850681  1.0000
  H   H63       1.0  0.0159196295514974  0.43886675521193996  0.6498407439606453  1.0000
  H   H64       1.0  0.9831809776462707  0.0387470977614441  0.6396607900784089  1.0000
  H   H65       1.0  0.9745451757872984  0.2024869967793279  0.5714282929621602  1.0000
  H   H66       1.0  0.8906804181442497  0.007648333265628102  0.5649204820868761  1.0000
  H   H67       1.0  0.4522625762938475  0.18560868903191613  0.6390827037185501  1.0000
  H   H68       1.0  0.5162007322040622  0.15307837236620966  0.7155577815960257  1.0000
  H   H69       1.0  0.6618048091196941  0.2834095369851255  0.6939403400666322  1.0000
  H   H70       1.0  0.24711270797544668  0.1872939277347854  0.6354977752183544  1.0000
  H   H71       1.0  0.1002336038337077  0.1145316182605143  0.7031517829678791  1.0000
  H   H72       1.0  0.9588695487708991  0.2104407704825562  0.6716606130592665  1.0000
  H   H73       1.0  0.6853075590128056  0.12485402113738076  0.557989052330683  1.0000
  H   H74       1.0  0.6541369469916418  0.1157812658808055  0.5118134484061301  1.0000
  H   H75       1.0  0.43907919415813973  0.3670043370478098  0.517748735564922  1.0000
  H   H76       1.0  0.4718095735025117  0.37637748578904945  0.5632866437263289  1.0000
  H   H77       1.0  0.4546827830400915  0.03152680465077401  0.396679612116202  1.0000
  H   H78       1.0  0.18574666430556158  0.2097022116327025  0.407882497172281  1.0000
  H   H79       1.0  0.34385750734021775  0.2829089914939686  0.4382728000272705  1.0000
  H   H80       1.0  0.22525106365269923  0.8117660554293805  0.3841345920910085  1.0000
  H   H81       1.0  0.50700519501369  0.8156132637106096  0.3449630076732504  1.0000
  H   H82       1.0  0.43886646803497337  0.015918388173204796  0.3501592862748167  1.0000
  H   H83       1.0  0.0387462229492286  0.983182945151732  0.3603397799064965  1.0000
  H   H84       1.0  0.20248555188569387  0.9745417260380052  0.42857189965286574  1.0000
  H   H85       1.0  0.007646601315762799  0.8906786272848422  0.4350795335606037  1.0000
  H   H86       1.0  0.18561033826625106  0.45226069421754295  0.36091713436093187  1.0000
  H   H87       1.0  0.15307847638496946  0.5162011105108562  0.28444224158482706  1.0000
  H   H88       1.0  0.28340904829642  0.6618049635722301  0.3060598601729438  1.0000
  H   H89       1.0  0.18729480714439006  0.24711266282935176  0.36450262795569427  1.0000
  H   H90       1.0  0.11453088900672981  0.1002338100550659  0.2968488135644591  1.0000
  H   H91       1.0  0.2104417037709396  0.9588692586902567  0.32833957980968614  1.0000
  H   H92       1.0  0.12485399631019331  0.685306063016185  0.4420105939481545  1.0000
  H   H93       1.0  0.11578120212093519  0.6541354706047215  0.48818619919631334  1.0000
  H   H94       1.0  0.36700464201346245  0.4390780338869931  0.4822512831163691  1.0000
  H   H95       1.0  0.3763778297693392  0.4718083909972605  0.4367131874360055  1.0000
  H   H96       1.0  0.545316478650264  0.9684705314977223  0.8966792024860195  1.0000
  H   H97       1.0  0.8142525685292767  0.7902959111366032  0.90788259012141  1.0000
  H   H98       1.0  0.6561424174820232  0.7170891756691232  0.938272910618039  1.0000
  H   H99       1.0  0.7747497708492119  0.1882335731508746  0.8841346396598552  1.0000
  H   H100      1.0  0.4929949701160936  0.18438630764769934  0.844963283611804  1.0000
  H   H101      1.0  0.5611321432033165  0.9840804205271639  0.8501598062574586  1.0000
  H   H102      1.0  0.9612539025767151  0.016817418924205196  0.8603395985470568  1.0000
  H   H103      1.0  0.797513627659633  0.0254579674648667  0.9285721160343028  1.0000
  H   H104      1.0  0.9923541019833663  0.10932030546518229  0.935079727660664  1.0000
  H   H105      1.0  0.8143890155168662  0.5477396707046296  0.8609172066025508  1.0000
  H   H106      1.0  0.8469203040932171  0.48380068320268066  0.7844423034588102  1.0000
  H   H107      1.0  0.7165889062541099  0.3381960914700741  0.8060599293174703  1.0000
  H   H108      1.0  0.8127068481721622  0.7528877073224223  0.8645019734113359  1.0000
  H   H109      1.0  0.8854701702815788  0.899769542283444  0.7968481605548874  1.0000
  H   H110      1.0  0.7895615851858508  0.0411325991361906  0.8283397987294663  1.0000
  H   H111      1.0  0.8751459188880658  0.31469133935299  0.942010823269861  1.0000
  H   H112      1.0  0.8842178238918309  0.34586430998710666  0.9881864298060348  1.0000
  H   H113      1.0  0.6329943992875258  0.5609209677798574  0.9822510116165262  1.0000
  H   H114      1.0  0.6236220990698271  0.5281897738872914  0.9367131006947388  1.0000
  H   H115      1.0  0.5315052672002095  0.0453362538062976  0.1467135185561332  1.0000
  H   H116      1.0  0.7096944941361797  0.3142576737634073  0.15791655984325803  1.0000
  H   H117      1.0  0.7828931471557682  0.15614038587289508  0.18830537017417015  1.0000
  H   H118      1.0  0.31174058033199253  0.2747488025288689  0.1341256634531192  1.0000
  H   H119      1.0  0.31569037951241097  0.9929563421998254  0.09496995188577978  1.0000
  H   H120      1.0  0.515983853902128  0.061071800457099784  0.1002036175424621  1.0000
  H   H121      1.0  0.48320965175976477  0.4612229541826948  0.11034292359266827  1.0000
  H   H122      1.0  0.47446155550390773  0.2975570584793488  0.17858621780685266  1.0000
  H   H123      1.0  0.3906193391291596  0.49242324891523737  0.1850754279340023  1.0000
  H   H124      1.0  0.952238018586023  0.31431920854613077  0.11092697091884668  1.0000
  H   H125      1.0  0.016144877411257096  0.3470296377597818  0.0344545648040935  1.0000
  H   H126      1.0  0.1617713488236632  0.21665897399417838  0.056051509575773685  1.0000
  H   H127      1.0  0.747093543862263  0.3127401141411283  0.11452570434283156  1.0000
  H   H128      1.0  0.6002094996630517  0.38546644638766026  0.0468691129023142  1.0000
  H   H129      1.0  0.4588717392173436  0.28950094683445116  0.07835687821363987  1.0000
  H   H130      1.0  0.18526266143062745  0.37515348056608383  0.1919973958686469  1.0000
  H   H131      1.0  0.15409263922867214  0.3842426223166271  0.23817356290519598  1.0000
  H   H132      1.0  0.9390570930080243  0.13299913474754993  0.23224009404030707  1.0000
  H   H133      1.0  0.9717999772618028  0.12361189966575378  0.18670218093289034  1.0000
  H   H134      1.0  0.46849463825284937  0.9546630279367462  0.646713119353528  1.0000
  H   H135      1.0  0.2903076932325561  0.6857408540841305  0.6579169091601286  1.0000
  H   H136      1.0  0.2171074214353723  0.84385895662826  0.6883053717660272  1.0000
  H   H137      1.0  0.6882616683114833  0.7252489203085659  0.6341257698878663  1.0000
  H   H138      1.0  0.6843111997153456  0.0070420936933502  0.594970369932085  1.0000
  H   H139      1.0  0.48401771184986586  0.9389258728270351  0.6002035869212037  1.0000
  H   H140      1.0  0.5167903473656921  0.5387755041731808  0.6103426677587436  1.0000
  H   H141      1.0  0.5255413488850208  0.7024422698154851  0.6785861607438901  1.0000
  H   H142      1.0  0.6093835485506176  0.507575318604637  0.6850747831832678  1.0000
  H   H143      1.0  0.0477650600524413  0.6856807911613387  0.6109266123339907  1.0000
  H   H144      1.0  0.9838537766401104  0.6529710205015887  0.5344546204200283  1.0000
  H   H145      1.0  0.8382287901118772  0.7833432563214231  0.5560517844440014  1.0000
  H   H146      1.0  0.25290567423722626  0.6872575800737336  0.6145258733048918  1.0000
  H   H147      1.0  0.3997914331870618  0.6145326894932807  0.5468694396066239  1.0000
  H   H148      1.0  0.5411283422826401  0.7104982350487177  0.578357191751202  1.0000
  H   H149      1.0  0.8147402084339677  0.6248412457943501  0.691997660767626  1.0000
  H   H150      1.0  0.8459108819575079  0.6157552525165002  0.7381738223203342  1.0000
  H   H151      1.0  0.0609387408836497  0.8670048934787359  0.7322397489291602  1.0000
  H   H152      1.0  0.0281967441730373  0.8763897512694712  0.6867018415685349  1.0000
  C   C1        1.0  0.09604546396153069  0.5917174600311697  0.8465551503658375  1.0000
  C   C2        1.0  0.23443696926274532  0.6861532628350557  0.8405301670691684  1.0000
  C   C3        1.0  0.15692066020615417  0.7213703177731362  0.8253604259019554  1.0000
  C   C4        1.0  0.20838881982774643  0.3409730905670898  0.8759345481992824  1.0000
  C   C5        1.0  0.0635506958012471  0.34425642072093854  0.8966591097666805  1.0000
  C   C6        1.0  0.0950322464690387  0.44429002680421803  0.8935382000666434  1.0000
  C   C7        1.0  0.4431723021362401  0.46929591141636706  0.870228220761774  1.0000
  C   C8        1.0  0.3601657761845588  0.4636833223205342  0.8344912111524606  1.0000
  C   C9        1.0  0.4564902312040431  0.42191209534986746  0.831509518864948  1.0000
  C   C10       1.0  0.3058354679145339  0.9889192950055945  0.9071274906758757  1.0000
  C   C11       1.0  0.32107048502675883  0.025226207187145612  0.9464890547151511  1.0000
  C   C12       1.0  0.25619548287823335  0.09638406518598687  0.9357435371550764  1.0000
  C   C13       1.0  0.32031344898388164  0.6883151194020767  0.8996837852676334  1.0000
  C   C14       1.0  0.3547117449921232  0.6092491798165014  0.9344856568795592  1.0000
  C   C15       1.0  0.3086021929477738  0.5393202343690717  0.9189494106803408  1.0000
  C   C16       1.0  0.2418172178981237  0.10429532783000181  0.8406524318474522  1.0000
  C   C17       1.0  0.2493273267517537  0.08007232073306618  0.8134331002503854  1.0000
  C   C18       1.0  0.3233672191496524  0.1309304198230734  0.798906255717469  1.0000
  C   C19       1.0  0.3282545814075064  0.11385538409683697  0.7733848405000359  1.0000
  C   C20       1.0  0.2593477654621594  0.0453168281037364  0.7619096713504377  1.0000
  C   C21       1.0  0.18633509280541466  0.9930581814179361  0.7764216676559741  1.0000
  C   C22       1.0  0.1813717792782299  0.0106857113876515  0.8019761721411951  1.0000
  C   C23       1.0  0.26153306406240523  0.031191874432337792  0.7341697233194537  1.0000
  C   C24       1.0  0.9039539268097343  0.4082828839100471  0.34655533812419037  1.0000
  C   C25       1.0  0.765563207281481  0.31384707230155584  0.3405299954113303  1.0000
  C   C26       1.0  0.8430803256620507  0.2786299951999212  0.3253604256645559  1.0000
  C   C27       1.0  0.7916104952790873  0.6590272962936012  0.37593458817994463  1.0000
  C   C28       1.0  0.9364508766999933  0.655743226153561  0.396659313721102  1.0000
  C   C29       1.0  0.9049693340753535  0.5557080750019949  0.3935382141110964  1.0000
  C   C30       1.0  0.5568277979278449  0.5307029265964828  0.37022809913183613  1.0000
  C   C31       1.0  0.6398344159175196  0.5363154634852023  0.3344912635958508  1.0000
  C   C32       1.0  0.5435115090911323  0.578085915840205  0.33150940328794576  1.0000
  C   C33       1.0  0.6941676181213695  0.011084988683450099  0.4071278623844988  1.0000
  C   C34       1.0  0.6789294186061808  0.9747804447778564  0.44648932478163056  1.0000
  C   C35       1.0  0.7438044484366558  0.9036202603179647  0.4357439774863677  1.0000
  C   C36       1.0  0.6796842644496763  0.31168453190413464  0.3996839986669655  1.0000
  C   C37       1.0  0.6452866490600399  0.3907528330911703  0.43448532381614047  1.0000
  C   C38       1.0  0.6913970113748675  0.4606809855851921  0.4189492627493934  1.0000
  C   C39       1.0  0.7581783368055923  0.8957026967375796  0.34065231092949927  1.0000
  C   C40       1.0  0.7506682980428039  0.9199287450884412  0.313433168667153  1.0000
  C   C41       1.0  0.6766284430501984  0.8690729355397548  0.2989061448475922  1.0000
  C   C42       1.0  0.6717449978014332  0.886147163714952  0.2733847318244216  1.0000
  C   C43       1.0  0.7406541540745765  0.9546833921732514  0.26190974424462604  1.0000
  C   C44       1.0  0.8136675596170946  0.006940519547946201  0.2764220209589041  1.0000
  C   C45       1.0  0.8186277263054292  0.9893137971750645  0.3019766084778865  1.0000
  C   C46       1.0  0.7384696971724763  0.9688083053173528  0.23416961161420596  1.0000
  C   C47       1.0  0.908263962925261  0.596036058903614  0.096587582251253  1.0000
  C   C48       1.0  0.8138270886387317  0.7344287607050146  0.0905637352203357  1.0000
  C   C49       1.0  0.7786020431976154  0.6569166236507511  0.0753941721857458  1.0000
  C   C50       1.0  0.1590274835077068  0.7084010256680883  0.12593467330165  1.0000
  C   C51       1.0  0.15579672521465676  0.5635808920736595  0.14666778002906966  1.0000
  C   C52       1.0  0.055748897420542703  0.5950800139356645  0.14356418781891728  1.0000
  C   C53       1.0  0.0307059697925141  0.9431773216510776  0.12023172824518719  1.0000
  C   C54       1.0  0.036262920755298494  0.8601230507166947  0.08449898972987309  1.0000
  C   C55       1.0  0.07805204377744698  0.9564516981035353  0.0815080007422466  1.0000
  C   C56       1.0  0.5110539331634385  0.8058609212770946  0.15713520457530444  1.0000
  C   C57       1.0  0.47473936229605584  0.8210081266840562  0.1964986755909806  1.0000
  C   C58       1.0  0.40358492723937195  0.7561444627844978  0.18574217078891306  1.0000
  C   C59       1.0  0.8116669250307069  0.8203006279921328  0.14970582331978477  1.0000
  C   C60       1.0  0.890733497379479  0.8547276782714233  0.18450583505581616  1.0000
  C   C61       1.0  0.9606759597998931  0.8086469578686604  0.1689690227052765  1.0000
  C   C62       1.0  0.3957069243068716  0.7418169170772227  0.0906425018702564  1.0000
  C   C63       1.0  0.41990682325501894  0.7493306473378496  0.06342335650008118  1.0000
  C   C64       1.0  0.36904276498491134  0.8233591934336457  0.048895219450457696  1.0000
  C   C65       1.0  0.38611549591999517  0.8282409896347859  0.023371198370597295  1.0000
  C   C66       1.0  0.4546584760356893  0.7593407187601074  0.0118973217627172  1.0000
  C   C67       1.0  0.5069213149791381  0.6863312145464989  0.026411126419233696  1.0000
  C   C68       1.0  0.4892993920455239  0.6813731650374918  0.05196530127248169  1.0000
  C   C69       1.0  0.4687883253123318  0.7615050258067698  0.9841568603150249  1.0000
  C   C70       1.0  0.09173684187617677  0.40396391986390523  0.596587565265203  1.0000
  C   C71       1.0  0.1861729614240204  0.2655704390104319  0.5905635060308398  1.0000
  C   C72       1.0  0.22139727567846273  0.34308255390608616  0.5753933858832311  1.0000
  C   C73       1.0  0.8409740159682713  0.2915989959689753  0.6259343474136259  1.0000
  C   C74       1.0  0.8442039506111739  0.4364183896002912  0.6466678382725775  1.0000
  C   C75       1.0  0.9442517863955545  0.4049200334589003  0.6435644143962944  1.0000
  C   C76       1.0  0.969294003853996  0.056824232169191205  0.6202319213514753  1.0000
  C   C77       1.0  0.963739455687005  0.1398776806407156  0.5844997491613312  1.0000
  C   C78       1.0  0.9219495701050276  0.0435513396500795  0.5815083860029161  1.0000
  C   C79       1.0  0.48894671569900083  0.1941399161973507  0.6571352958230817  1.0000
  C   C80       1.0  0.5252604149331432  0.17899276829790273  0.6964985739268883  1.0000
  C   C81       1.0  0.5964156479478007  0.24385641648109405  0.6857422500418833  1.0000
  C   C82       1.0  0.1883329727097305  0.1797001986317071  0.6497061448828205  1.0000
  C   C83       1.0  0.10926631073044038  0.14527473969985744  0.6845063517612289  1.0000
  C   C84       1.0  0.039324658584547506  0.19135389689395044  0.6689697400407651  1.0000
  C   C85       1.0  0.6042923552999112  0.2581815125015439  0.5906423950208932  1.0000
  C   C86       1.0  0.5800917561946264  0.2506685127342577  0.5634232526657854  1.0000
  C   C87       1.0  0.6309573923918705  0.17663994540959752  0.5488952877526998  1.0000
  C   C88       1.0  0.6138839569368243  0.17175811192357324  0.5233710827014874  1.0000
  C   C89       1.0  0.5453417766270973  0.24065836603363516  0.5118970361901987  1.0000
  C   C90       1.0  0.49307735979294887  0.31366789145543816  0.5264110411029108  1.0000
  C   C91       1.0  0.5106992169137854  0.3186259782957208  0.5519650275827672  1.0000
  C   C92       1.0  0.531211481336136  0.23849397864151456  0.484156903767456  1.0000
  C   C93       1.0  0.4039650927618085  0.091733920024339  0.4034126497585716  1.0000
  C   C94       1.0  0.26557294775701473  0.18617066910621818  0.40943633817028047  1.0000
  C   C95       1.0  0.3430851669533298  0.2213949236618831  0.4246060823416541  1.0000
  C   C96       1.0  0.2915992515703465  0.8409723313862046  0.37406566052943896  1.0000
  C   C97       1.0  0.43641886740957153  0.8442038133819524  0.3533319786670361  1.0000
  C   C98       1.0  0.4049196934781776  0.9442499614010275  0.35643540028872417  1.0000
  C   C99       1.0  0.0568241430827001  0.9692952104737317  0.379768276227196  1.0000
  C   C100      1.0  0.1398784627209935  0.9637367991924322  0.4155008181365075  1.0000
  C   C101      1.0  0.043550439427214385  0.9219477429996347  0.4184921858377137  1.0000
  C   C102      1.0  0.19414081764659133  0.48894556057766186  0.3428645407693551  1.0000
  C   C103      1.0  0.17899289938979732  0.5252615396922807  0.3035010758353706  1.0000
  C   C104      1.0  0.2438550954280174  0.5964158929541908  0.3142577675151372  1.0000
  C   C105      1.0  0.1797003046531245  0.18833302098723692  0.35029407434014087  1.0000
  C   C106      1.0  0.14527481503220227  0.10926649341638492  0.3154936850603107  1.0000
  C   C107      1.0  0.19135557110623577  0.039323393833591104  0.3310306698337655  1.0000
  C   C108      1.0  0.2581832403174573  0.6042909953310271  0.40935743567143845  1.0000
  C   C109      1.0  0.2506694441927593  0.5800911865176133  0.4365765790697011  1.0000
  C   C110      1.0  0.17664076109239352  0.6309567406342323  0.4511043586104434  1.0000
  C   C111      1.0  0.17175813602122506  0.6138840860481664  0.47662875051803155  1.0000
  C   C112      1.0  0.24065694344428581  0.5453419990471389  0.488102983151819  1.0000
  C   C113      1.0  0.31366889392135283  0.4930768960580777  0.4735887914224222  1.0000
  C   C114      1.0  0.3186270022159264  0.5106987417859514  0.4480348041999135  1.0000
  C   C115      1.0  0.2384933077046796  0.5312101683400599  0.515842929976202  1.0000
  C   C116      1.0  0.5960349218408112  0.9082641962122294  0.903412413465929  1.0000
  C   C117      1.0  0.7344270513317994  0.8138274559303086  0.9094362590511904  1.0000
  C   C118      1.0  0.6569140228112715  0.7786032235383332  0.9246060119279632  1.0000
  C   C119      1.0  0.7084008386078366  0.15902728248723014  0.8740657156304223  1.0000
  C   C120      1.0  0.5635812761662818  0.155795770202495  0.8533324276381363  1.0000
  C   C121      1.0  0.5950796718494685  0.055749626719723694  0.8564358359688098  1.0000
  C   C122      1.0  0.9431759324086003  0.030704411730610597  0.879768471051463  1.0000
  C   C123      1.0  0.8601222910022344  0.0362621049553056  0.9155006537131384  1.0000
  C   C124      1.0  0.9564503065948174  0.0780503952635243  0.9184918242922605  1.0000
  C   C125      1.0  0.8058585826271312  0.5110555482264019  0.8428646111709454  1.0000
  C   C126      1.0  0.8210058320008143  0.47474105211838236  0.8035013269856248  1.0000
  C   C127      1.0  0.7561420677509504  0.4035859443214137  0.8142580223954637  1.0000
  C   C128      1.0  0.820300616997919  0.8116680986649597  0.8502937959300495  1.0000
  C   C129      1.0  0.8547261962415361  0.8907353456517128  0.8154939665955252  1.0000
  C   C130      1.0  0.8086469406691562  0.9606769274181063  0.8310311504294459  1.0000
  C   C131      1.0  0.7418190697356123  0.39570867009154387  0.9093576920441462  1.0000
  C   C132      1.0  0.7493312552509862  0.41990774841931267  0.9365766502371711  1.0000
  C   C133      1.0  0.8233591306743334  0.3690437560379749  0.951105158793311  1.0000
  C   C134      1.0  0.8282409197512449  0.38611721816885586  0.9766293652852909  1.0000
  C   C135      1.0  0.7593413125250663  0.4546585516799269  0.9881028696364638  1.0000
  C   C136      1.0  0.6863309399417828  0.5069228632060713  0.9735888795282575  1.0000
  C   C137      1.0  0.6813728974595179  0.48930098014719914  0.9480350776860005  1.0000
  C   C138      1.0  0.7615030835127711  0.4687904627400172  0.0158431444143545  1.0000
  C   C139      1.0  0.5917182750711448  0.0960472966573818  0.15344505834126204  1.0000
  C   C140      1.0  0.6861534416421549  0.23443859728806157  0.15947003398030546  1.0000
  C   C141      1.0  0.7213705393475821  0.1569223925321666  0.17463996267290577  1.0000
  C   C142      1.0  0.3409743275124556  0.20838819473316764  0.12406566505967477  1.0000
  C   C143      1.0  0.34425844424082186  0.0635487524293197  0.1033409220137216  1.0000
  C   C144      1.0  0.44429296435492205  0.09503025555309105  0.10646164125400047  1.0000
  C   C145      1.0  0.4692957913517759  0.4431713323342947  0.129771980554743  1.0000
  C   C146      1.0  0.4636831741751521  0.3601633667019044  0.16550862081033557  1.0000
  C   C147      1.0  0.42191265504165193  0.4564884501992807  0.16849068357191035  1.0000
  C   C148      1.0  0.9889199513490822  0.3058354886610957  0.09287251193308779  1.0000
  C   C149      1.0  0.0252231728863563  0.3210705056339264  0.053510606820452694  1.0000
  C   C150      1.0  0.09638189865326302  0.2561963621117371  0.0642557519055202  1.0000
  C   C151      1.0  0.6883161045840966  0.3203142147988061  0.10031641288616558  1.0000
  C   C152      1.0  0.6092485288727828  0.3547124801765377  0.0655147288776448  1.0000
  C   C153      1.0  0.5393202433016384  0.30860221629472323  0.08105060662494168  1.0000
  C   C154      1.0  0.10429389006409912  0.24181883530611256  0.15934741582832856  1.0000
  C   C155      1.0  0.08007083256334369  0.2493289180687555  0.1865669341092442  1.0000
  C   C156      1.0  0.1309289975442525  0.32336869466627877  0.20109321613176684  1.0000
  C   C157      1.0  0.11385469301600179  0.32825526533682853  0.22661481788412627  1.0000
  C   C158      1.0  0.0453168011798795  0.2593485432332585  0.2380899915542471  1.0000
  C   C159      1.0  0.9930580006775925  0.18633521454289337  0.223577966478949  1.0000
  C   C160      1.0  0.010684886157243098  0.18137192255434084  0.19802349446715783  1.0000
  C   C161      1.0  0.031191811505621603  0.26153305294271695  0.2658301261120641  1.0000
  C   C162      1.0  0.40828161304480654  0.9039519949198578  0.6534450361781834  1.0000
  C   C163      1.0  0.31384797146753834  0.7655607030859672  0.6594703865485059  1.0000
  C   C164      1.0  0.2786308346932245  0.8430769300030716  0.6746401410381606  1.0000
  C   C165      1.0  0.659026406526344  0.791610283667417  0.6240655954363135  1.0000
  C   C166      1.0  0.6557438836816444  0.9364504659442757  0.6033408652392609  1.0000
  C   C167      1.0  0.55570858527998  0.9049674268732135  0.6064615969064419  1.0000
  C   C168      1.0  0.5307041577357197  0.5568271544048287  0.6297715380243005  1.0000
  C   C169      1.0  0.5363182233935432  0.6398328614756464  0.6655085567796205  1.0000
  C   C170      1.0  0.5780871943258816  0.5435108633574046  0.6684902327477359  1.0000
  C   C171      1.0  0.011083173784541598  0.6941652549256858  0.5928723457473878  1.0000
  C   C172      1.0  0.9747785131123409  0.6789294102010287  0.5535106660215233  1.0000
  C   C173      1.0  0.9036197596689419  0.7438043396752434  0.5642561996575637  1.0000
  C   C174      1.0  0.311683920366022  0.679683458655461  0.600316572322896  1.0000
  C   C175      1.0  0.3907515857012527  0.6452866829458942  0.5655150595704228  1.0000
  C   C176      1.0  0.4606782907551407  0.6913954290198417  0.5810507445523782  1.0000
  C   C177      1.0  0.8957013613224375  0.7581789244005673  0.6593474937338398  1.0000
  C   C178      1.0  0.919927429738479  0.7506704219005087  0.6865668215806267  1.0000
  C   C179      1.0  0.8690723083728854  0.6766291260051248  0.7010936633737185  1.0000
  C   C180      1.0  0.8861465471670229  0.6717441331271488  0.7266150759958662  1.0000
  C   C181      1.0  0.9546828689311511  0.74065318276277  0.7380898729209163  1.0000
  C   C182      1.0  0.006939396038660602  0.8136672605152881  0.723577997244824  1.0000
  C   C183      1.0  0.9893125763808187  0.8186282044085544  0.698023377252575  1.0000
  C   C184      1.0  0.9688085574181571  0.7384687135755216  0.7658300051585554  1.0000
  N   N1        1.0  0.19511414311437392  0.60392720348365  0.8541453224893232  1.0000
  N   N2        1.0  0.0707046127593145  0.6612468615260735  0.8293695736858878  1.0000
  N   N3        1.0  0.1866911444218147  0.4416438825514533  0.8801450951360649  1.0000
  N   N4        1.0  0.1358925585608688  0.28042133057536484  0.885688353742843  1.0000
  N   N5        1.0  0.3523236695095592  0.49408608010412536  0.8591806074323072  1.0000
  N   N6        1.0  0.507541187292972  0.42581789919450597  0.8540537132850686  1.0000
  N   N7        1.0  0.3521980010265224  0.9571785081963213  0.9281850303335374  1.0000
  N   N8        1.0  0.2470156891002091  0.0727942654174925  0.9107769886759413  1.0000
  N   N9        1.0  0.2868769918425684  0.5899437246184007  0.8967624078380609  1.0000
  N   N10       1.0  0.3613441153919296  0.702577028171369  0.9221952212727443  1.0000
  N   N11       1.0  0.8048859983651938  0.3960731515428435  0.3541449657697484  1.0000
  N   N12       1.0  0.9292948222776971  0.33875191680016314  0.32936956555192143  1.0000
  N   N13       1.0  0.8133089300942515  0.5583572807120019  0.38014493711887093  1.0000
  N   N14       1.0  0.8641044206644821  0.7195775300331917  0.38568820180195473  1.0000
  N   N15       1.0  0.6476779995154373  0.5059135120187789  0.3591804699638246  1.0000
  N   N16       1.0  0.49245741391653297  0.5741809151945318  0.35405341895314985  1.0000
  N   N17       1.0  0.6478050307742649  0.04282657650971089  0.4281855978872571  1.0000
  N   N18       1.0  0.752985847025208  0.9272100236084171  0.41077761576641336  1.0000
  N   N19       1.0  0.7131230398769901  0.4100574629207117  0.396762066173423  1.0000
  N   N20       1.0  0.6386550805682631  0.29742496677932445  0.42219543965407513  1.0000
  N   N21       1.0  0.8960596884397278  0.6951039217010617  0.1041757190076211  1.0000
  N   N22       1.0  0.8387238579260483  0.5707018429445866  0.07940274940118289  1.0000
  N   N23       1.0  0.058368243461707395  0.6867225583478173  0.1301649512070426  1.0000
  N   N24       1.0  0.21960215464146418  0.6359091008062661  0.135680650649725  1.0000
  N   N25       1.0  0.005890968190449499  0.8523212643544512  0.1091932255706567  1.0000
  N   N26       1.0  0.07417622173015559  0.007518278398933398  0.1040502973372455  1.0000
  N   N27       1.0  0.5427867379315146  0.8521800802166839  0.1781990772284274  1.0000
  N   N28       1.0  0.4271848505318161  0.7470268627516392  0.16077524818262387  1.0000
  N   N29       1.0  0.910054096032873  0.7868989788730616  0.1467810882886553  1.0000
  N   N30       1.0  0.7973970024903138  0.8613259850036171  0.1722174507773744  1.0000
  N   N31       1.0  0.1039410968161434  0.30489683840633575  0.6041758778629499  1.0000
  N   N32       1.0  0.16127468037015552  0.429297340471166  0.5794023518024288  1.0000
  N   N33       1.0  0.9416324748605973  0.31327823972659274  0.6301651703642577  1.0000
  N   N34       1.0  0.7803985494785978  0.3640909350711965  0.635680526229322  1.0000
  N   N35       1.0  0.9941105743937158  0.1476810435890528  0.6091932365427866  1.0000
  N   N36       1.0  0.9258237935880376  0.9924840220366845  0.6040503906755389  1.0000
  N   N37       1.0  0.4572146269379261  0.14782078802680587  0.6781991693195053  1.0000
  N   N38       1.0  0.5728150187032242  0.25297320978846466  0.6607751456442158  1.0000
  N   N39       1.0  0.08994734975088652  0.2131018434730408  0.6467816136974562  1.0000
  N   N40       1.0  0.20260283727486686  0.1386741042528143  0.6722183250882665  1.0000
  N   N41       1.0  0.3048963309171882  0.1039381614538186  0.3958243400178674  1.0000
  N   N42       1.0  0.4292985406461582  0.16127241804210257  0.4205976739669026  1.0000
  N   N43       1.0  0.3132777589736264  0.941630646216744  0.36983483355518126  1.0000
  N   N44       1.0  0.36409053129214897  0.780396958439148  0.3643194813218571  1.0000
  N   N45       1.0  0.1476779995016244  0.9941094280025454  0.39080677109735257  1.0000
  N   N46       1.0  0.9924829742044138  0.9258235138451524  0.3959495914249374  1.0000
  N   N47       1.0  0.1478216338347877  0.45721352971710877  0.3218006698400302  1.0000
  N   N48       1.0  0.25297342859487765  0.572814513865822  0.3392250585231905  1.0000
  N   N49       1.0  0.2131027667043597  0.08994599899862268  0.35321860766269697  1.0000
  N   N50       1.0  0.1386757036562756  0.20260210708469367  0.3277824534170647  1.0000
  N   N51       1.0  0.695102162720339  0.8960591734478172  0.8958239015843077  1.0000
  N   N52       1.0  0.5707006594446539  0.8387249530477732  0.9205974355706132  1.0000
  N   N53       1.0  0.6867223421057389  0.05836742096722959  0.8698350694803451  1.0000
  N   N54       1.0  0.6359088137310638  0.21960264119898198  0.8643195525401735  1.0000
  N   N55       1.0  0.8523197367940867  0.0058902103354724995  0.8908069775304454  1.0000
  N   N56       1.0  0.0075170596175766  0.0741745914895304  0.8959503035717303  1.0000
  N   N57       1.0  0.8521770504345412  0.5427867780634728  0.8218007359506811  1.0000
  N   N58       1.0  0.7470259810554083  0.42718581936657063  0.8392245722569738  1.0000
  N   N59       1.0  0.7869004581845188  0.9100543546634159  0.8532179704211555  1.0000
  N   N60       1.0  0.8613260462279584  0.7973989796779933  0.8277817953241636  1.0000
  N   N61       1.0  0.6039288107801468  0.19511506567430098  0.14585506869190817  1.0000
  N   N62       1.0  0.6612485383789276  0.0707072429857547  0.1706308197019908  1.0000
  N   N63       1.0  0.4416444980272943  0.18668978297544206  0.11985492939132307  1.0000
  N   N64       1.0  0.280422484867259  0.1358928146163123  0.11431205002626402  1.0000
  N   N65       1.0  0.4940852196858502  0.35232128519332667  0.14081940992269887  1.0000
  N   N66       1.0  0.4258184771272795  0.5075416553547002  0.1459466734785266  1.0000
  N   N67       1.0  0.9571760490852198  0.3521979660808866  0.07181497179475119  1.0000
  N   N68       1.0  0.07279359116698458  0.24701656777057218  0.08922267373066718  1.0000
  N   N69       1.0  0.5899437948231919  0.2868770344230924  0.10323760851675699  1.0000
  N   N70       1.0  0.7025772763923186  0.36134483406901546  0.07780478892837547  1.0000
  N   N71       1.0  0.3960734076526151  0.8048834445526508  0.6458550399240648  1.0000
  N   N72       1.0  0.33875207572921073  0.9292928439495541  0.6706308102037538  1.0000
  N   N73       1.0  0.5583562468609244  0.8133071487650483  0.6198550629605322  1.0000
  N   N74       1.0  0.719579044546876  0.864105649532867  0.6143119774383763  1.0000
  N   N75       1.0  0.5059147009494964  0.6476772176848372  0.6408191650195789  1.0000
  N   N76       1.0  0.5741822005589867  0.49245685501097813  0.6459462188901383  1.0000
  N   N77       1.0  0.0428240492612488  0.6478019764993449  0.5718146107255392  1.0000
  N   N78       1.0  0.9272095433636308  0.7529849407388697  0.589222746433812  1.0000
  N   N79       1.0  0.4100554523425898  0.7131221838102988  0.6032379420787635  1.0000
  N   N80       1.0  0.2974235767852988  0.638654347004902  0.5778049470201266  1.0000
  O   O1        1.0  0.33652422999193726  0.07851296419937628  0.7228043674002933  1.0000
  O   O2        1.0  0.19396150756033137  0.9795239758466749  0.7231766849258034  1.0000
  O   O3        1.0  0.16190716658460502  0.0667349192091677  0.8522396604821407  1.0000
  O   O4        1.0  0.3087722529361159  0.15949000158271787  0.8509631452230335  1.0000
  O   O5        1.0  0.6634793307665845  0.9214879691988146  0.22280426298780748  1.0000
  O   O6        1.0  0.8060405117278295  0.020476958100843493  0.22317685440108892  1.0000
  O   O7        1.0  0.8380868177620686  0.9332638925462219  0.3522404613668543  1.0000
  O   O8        1.0  0.6912225049691259  0.840504957031662  0.3509620990414603  1.0000
  O   O9        1.0  0.42149978604321353  0.8364979206634755  0.9727864891895379  1.0000
  O   O10       1.0  0.5204442173799605  0.6939073127502339  0.9731687952156207  1.0000
  O   O11       1.0  0.43331567816451866  0.6619352502056232  0.1022319534336589  1.0000
  O   O12       1.0  0.34048321159848166  0.8087452906121088  0.1009549001822663  1.0000
  O   O13       1.0  0.5785031309113788  0.16350106716355126  0.4727863329679635  1.0000
  O   O14       1.0  0.4795533068091019  0.30608936489011274  0.4731684799684572  1.0000
  O   O15       1.0  0.5666828013362418  0.33806396656093085  0.6022318590786567  1.0000
  O   O16       1.0  0.6595160414442347  0.1912546945406461  0.6009547792824248  1.0000
  O   O17       1.0  0.1634995105493289  0.578502513050168  0.5272133155527214  1.0000
  O   O18       1.0  0.30608878615440455  0.4795512925726086  0.5268311671168249  1.0000
  O   O19       1.0  0.33806581702845045  0.5666822727818825  0.3977683424916805  1.0000
  O   O20       1.0  0.19125556050139636  0.6595138366460702  0.3990450517948574  1.0000
  O   O21       1.0  0.8364960811130401  0.4215027561699998  0.027213700762842994  1.0000
  O   O22       1.0  0.6939075767716503  0.5204470437964304  0.0268312100379404  1.0000
  O   O23       1.0  0.6619372931251917  0.43331814596193396  0.8977680557369679  1.0000
  O   O24       1.0  0.8087475463660995  0.34048581370879555  0.8990452933471997  1.0000
  O   O25       1.0  0.07851296377971553  0.3365241034506496  0.27719547800837313  1.0000
  O   O26       1.0  0.9795245160082544  0.1939600480216299  0.27682294940330365  1.0000
  O   O27       1.0  0.06673189274695798  0.16190890669712127  0.1477598187890194  1.0000
  O   O28       1.0  0.15949019036682438  0.3087737786859178  0.1490368845692913  1.0000
  O   O29       1.0  0.9214866056201884  0.6634769094192307  0.7771955439419712  1.0000
  O   O30       1.0  0.0204750543537244  0.8060401940495652  0.7768229774741683  1.0000
  O   O31       1.0  0.9332626182273102  0.838088836084019  0.6477597117013119  1.0000
  O   O32       1.0  0.8405050875785067  0.6912224254497659  0.6490373373710197  1.0000
