data_image0
_chemical_formula_structural       Zn16H144C240O52
_chemical_formula_sum              "Zn16 H144 C240 O52"
_cell_length_a       23.382920807038023
_cell_length_b       23.382920208383293
_cell_length_c       29.79969019272032
_cell_angle_alpha    66.90790775625922
_cell_angle_beta     66.90788007761833
_cell_angle_gamma    60.010735543856505

_space_group_name_H-M_alt    "P 1"
_space_group_IT_number       1

loop_
  _space_group_symop_operation_xyz
  'x, y, z'

loop_
  _atom_site_type_symbol
  _atom_site_label
  _atom_site_symmetry_multiplicity
  _atom_site_fract_x
  _atom_site_fract_y
  _atom_site_fract_z
  _atom_site_occupancy
  Zn  Zn1       1.0  0.0765564936963443  0.13453960005538337  0.5576296904350642  1.0000
  Zn  Zn2       1.0  0.1344639185660697  0.23134125327455027  0.5576785905379892  1.0000
  Zn  Zn3       1.0  0.23124647238801543  0.07665902235218883  0.5576245962612276  1.0000
  Zn  Zn4       1.0  0.7313408040662069  0.6344640689490718  0.057679081119267964  1.0000
  Zn  Zn5       1.0  0.5766594261677652  0.7312457515750168  0.05762480176481702  1.0000
  Zn  Zn6       1.0  0.6345394126288183  0.5765566112789174  0.057630452581875595  1.0000
  Zn  Zn7       1.0  0.18084744046734608  0.1808706998229184  0.45749933217506106  1.0000
  Zn  Zn8       1.0  0.6808704874951488  0.6808479545216392  0.9574995891561999  1.0000
  Zn  Zn9       1.0  0.8053850816541869  0.9604128396522643  0.3735802087380049  1.0000
  Zn  Zn10      1.0  0.9604788701768997  0.8605642114865619  0.3735687289454857  1.0000
  Zn  Zn11      1.0  0.8605171342670062  0.8054057680797372  0.3736196992760341  1.0000
  Zn  Zn12      1.0  0.3605642338406057  0.4604775372983383  0.8735697442929009  1.0000
  Zn  Zn13      1.0  0.30540632452905214  0.3605169508344447  0.873620184982215  1.0000
  Zn  Zn14      1.0  0.46041453795282916  0.3053828155368238  0.873579606164185  1.0000
  Zn  Zn15      1.0  0.9087061876121892  0.9087816925785221  0.2738995432400985  1.0000
  Zn  Zn16      1.0  0.40878159862069907  0.4087059101127723  0.7738995786237766  1.0000
  H   H1        1.0  0.9562836196078236  0.1349129935393593  0.48859787409802624  1.0000
  H   H2        1.0  0.0739394478095647  0.22333221126024233  0.3541161427297581  1.0000
  H   H3        1.0  0.051971445456970904  0.9447316487586551  0.6419950944792915  1.0000
  H   H4        1.0  0.2229332316595958  0.9193814725656824  0.6806486557179454  1.0000
  H   H5        1.0  0.8881767059276201  0.14218886010596785  0.4387137825097512  1.0000
  H   H6        1.0  0.0052064198174477  0.23218497349080286  0.3035908006523798  1.0000
  H   H7        1.0  0.049346930406358104  0.8390369470100295  0.7068587693934917  1.0000
  H   H8        1.0  0.21956429716349393  0.8146590810251908  0.7473709447942625  1.0000
  H   H9        1.0  0.8952206202464627  0.0957468200880527  0.38028863256254647  1.0000
  H   H10       1.0  0.8934550261742018  0.29232651419683  0.29112413088380146  1.0000
  H   H11       1.0  0.241867566521961  0.7071470343423203  0.7631033345913991  1.0000
  H   H12       1.0  0.8228377678036835  0.1056848016360662  0.3325462244027194  1.0000
  H   H13       1.0  0.13485012367682708  0.4203530126599092  0.4886204380858459  1.0000
  H   H14       1.0  0.22335382562489062  0.34858077700361884  0.35419243189512173  1.0000
  H   H15       1.0  0.9446559066446839  0.3614075894687546  0.6420811206125876  1.0000
  H   H16       1.0  0.9192527149653885  0.17719402434481418  0.68066020175754  1.0000
  H   H17       1.0  0.14216708144623882  0.5309986570311481  0.43867340464035454  1.0000
  H   H18       1.0  0.23222417338412527  0.4589427688188793  0.3036174010580908  1.0000
  H   H19       1.0  0.8389784522786246  0.40479863138684624  0.7069733446186958  1.0000
  H   H20       1.0  0.8145825243398124  0.2184904742987825  0.7474115079888718  1.0000
  H   H21       1.0  0.09590473088930199  0.6287037093696526  0.3803556253744206  1.0000
  H   H22       1.0  0.2923039948117676  0.5231723133079883  0.2909762618836496  1.0000
  H   H23       1.0  0.7071000365104466  0.2879401260202172  0.7631122140025041  1.0000
  H   H24       1.0  0.10578165418381497  0.7388925483275273  0.33258348140267197  1.0000
  H   H25       1.0  0.42009087552870034  0.9561050841182066  0.4886571626312631  1.0000
  H   H26       1.0  0.3484941209285779  0.07383208823934244  0.3541694486437663  1.0000
  H   H27       1.0  0.36135885799250644  0.0517339286121086  0.6420918124831658  1.0000
  H   H28       1.0  0.17731260781256  0.22284928482973504  0.680638324214833  1.0000
  H   H29       1.0  0.5308572221313099  0.8882488228061619  0.4387171823052255  1.0000
  H   H30       1.0  0.4588982371806622  0.005240698279045847  0.3036083966860446  1.0000
  H   H31       1.0  0.4049154672255426  0.04917892289083883  0.706877273358657  1.0000
  H   H32       1.0  0.21874230130454464  0.21953242743150272  0.7473098289992421  1.0000
  H   H33       1.0  0.6286594051446741  0.8951553533167104  0.38043102298276904  1.0000
  H   H34       1.0  0.5231480919631865  0.8937152927593748  0.290975750638168  1.0000
  H   H35       1.0  0.28807993116777203  0.2418259720224043  0.7631299318420873  1.0000
  H   H36       1.0  0.7388301052765344  0.822803108142871  0.33268380066205344  1.0000
  H   H37       1.0  0.9203518029675026  0.6348507903170173  0.9886209058858526  1.0000
  H   H38       1.0  0.8485818153596724  0.723352954479054  0.8541917014886025  1.0000
  H   H39       1.0  0.8614088880123277  0.44465546883827045  0.14208073337753296  1.0000
  H   H40       1.0  0.6771943115681937  0.4192527144152437  0.18065968515688982  1.0000
  H   H41       1.0  0.030998800868253806  0.6421664775352555  0.9386740379941116  1.0000
  H   H42       1.0  0.9589442731709213  0.7322223096468508  0.8036174868608653  1.0000
  H   H43       1.0  0.9047985595481407  0.3389787713234894  0.2069741276173716  1.0000
  H   H44       1.0  0.7184902862359125  0.31458381148780035  0.2474107136174055  1.0000
  H   H45       1.0  0.12870412239754364  0.5959057467461051  0.8803569900486536  1.0000
  H   H46       1.0  0.023172962884203202  0.7923037739404393  0.790976312457005  1.0000
  H   H47       1.0  0.7879396980332133  0.20710023805437328  0.2631117987781693  1.0000
  H   H48       1.0  0.23889270771633866  0.605782630960107  0.8325839121502979  1.0000
  H   H49       1.0  0.45610437198721593  0.9200906550540188  0.9886575805625242  1.0000
  H   H50       1.0  0.5738312318809021  0.8484933415993794  0.8541700193698463  1.0000
  H   H51       1.0  0.5517331533345882  0.8613591822145784  0.14209108045977803  1.0000
  H   H52       1.0  0.7228483761394173  0.6773116681788808  0.18063896849455563  1.0000
  H   H53       1.0  0.38824856640825806  0.03085720309502447  0.9387181309095922  1.0000
  H   H54       1.0  0.5052402233548818  0.9588974328932243  0.8036092244709463  1.0000
  H   H55       1.0  0.549178580454459  0.9049155322189438  0.20687716692060565  1.0000
  H   H56       1.0  0.7195303094381276  0.7187415218562379  0.2473111419093285  1.0000
  H   H57       1.0  0.3951545973392357  0.12865837345528763  0.8804324563722831  1.0000
  H   H58       1.0  0.393714932689079  0.023148576585938926  0.7909762373794322  1.0000
  H   H59       1.0  0.7418250342684374  0.7880795739477907  0.2631287431636905  1.0000
  H   H60       1.0  0.3228031167553596  0.23882994279391315  0.8326861026883989  1.0000
  H   H61       1.0  0.6349113597302319  0.4562833602026828  0.9885989890176816  1.0000
  H   H62       1.0  0.7233313578247333  0.5739395491948187  0.8541177063014088  1.0000
  H   H63       1.0  0.444730949694673  0.5519713318049072  0.14199480525773814  1.0000
  H   H64       1.0  0.41938240993825093  0.7229314185388844  0.18064942778166682  1.0000
  H   H65       1.0  0.6421881689287333  0.3881768625302231  0.9387141274270903  1.0000
  H   H66       1.0  0.7321854459708774  0.5052058552217961  0.8035921458990244  1.0000
  H   H67       1.0  0.33903632583966475  0.5493461115679495  0.20685869292962886  1.0000
  H   H68       1.0  0.3146600027137367  0.7195623110319078  0.2473714578334024  1.0000
  H   H69       1.0  0.5957472084017966  0.3952202009889093  0.8802891665483726  1.0000
  H   H70       1.0  0.7923266240770203  0.3934566976301286  0.7911233967909509  1.0000
  H   H71       1.0  0.2071481760839973  0.7418660323968213  0.26310366255451356  1.0000
  H   H72       1.0  0.6056849702432956  0.32283675677484086  0.8325476662896348  1.0000
  H   H73       1.0  0.9727323753956014  0.9201369162258715  0.4820996683147739  1.0000
  H   H74       1.0  0.9661898140227548  0.9644475674615696  0.5478242931174008  1.0000
  H   H75       1.0  0.7688306822854541  0.1232566243503684  0.5299347606532336  1.0000
  H   H76       1.0  0.7746780116232799  0.07585540940537064  0.4662912374354918  1.0000
  H   H77       1.0  0.9733955123074267  0.036269938426898005  0.5692180077733866  1.0000
  H   H78       1.0  0.967868021438996  0.0730185499798139  0.6381081492329413  1.0000
  H   H79       1.0  0.8553992043491476  0.13385093060545478  0.6913305321567693  1.0000
  H   H80       1.0  0.753657661766738  0.11783713648195977  0.607080627272019  1.0000
  H   H81       1.0  0.7627771619264081  0.12182304000452866  0.7518089162409822  1.0000
  H   H82       1.0  0.6532975402839796  0.19105538444869571  0.8022889454056141  1.0000
  H   H83       1.0  0.574343202507059  0.29931253061728585  0.6705614707868719  1.0000
  H   H84       1.0  0.683853829902695  0.23052651625680207  0.6195009811724361  1.0000
  H   H85       1.0  0.9201699146974037  0.6248666337215313  0.48213298876212457  1.0000
  H   H86       1.0  0.9644842441557345  0.5214459591346312  0.54784053934803  1.0000
  H   H87       1.0  0.1232073325778558  0.5780459809372404  0.5299952351691105  1.0000
  H   H88       1.0  0.07581610251079242  0.6831486458985977  0.4663299930581601  1.0000
  H   H89       1.0  0.03629877776890571  0.4210085852649286  0.5691735167056322  1.0000
  H   H90       1.0  0.0730975004570098  0.32084884955652637  0.637974914506131  1.0000
  H   H91       1.0  0.1340022916552641  0.3191446056910578  0.6912313805489632  1.0000
  H   H92       1.0  0.1179270760542863  0.5211884546469817  0.607150650214912  1.0000
  H   H93       1.0  0.12206832732208991  0.3634075768309372  0.7518230795930237  1.0000
  H   H94       1.0  0.19125154200651912  0.353455750303013  0.8022370557920198  1.0000
  H   H95       1.0  0.2993164231223062  0.4559535471419523  0.670419718777417  1.0000
  H   H96       1.0  0.23053737095225557  0.4661033510967911  0.6194433237138384  1.0000
  H   H97       1.0  0.6249782484362  0.9727911451576151  0.48204364301762576  1.0000
  H   H98       1.0  0.5214862411154472  0.9663200675766107  0.54776032002394  1.0000
  H   H99       1.0  0.5777840525538879  0.7689360392120295  0.5299404549588828  1.0000
  H   H100      1.0  0.6829834223234741  0.774718737537377  0.46629432529942955  1.0000
  H   H101      1.0  0.42092229708003975  0.9735217874892331  0.5692124269252189  1.0000
  H   H102      1.0  0.32086795938254653  0.9678867081511343  0.638107996604205  1.0000
  H   H103      1.0  0.3193767116606665  0.8553548152495126  0.6912941871946002  1.0000
  H   H104      1.0  0.5213311881057693  0.7537835688289721  0.6069827161507957  1.0000
  H   H105      1.0  0.3636413372484952  0.7627498430697559  0.7517403466315214  1.0000
  H   H106      1.0  0.3535188956622832  0.653199386453224  0.8022270493612141  1.0000
  H   H107      1.0  0.45591845650572793  0.5742785891330798  0.6704876562686549  1.0000
  H   H108      1.0  0.46616566039618595  0.6838247529112923  0.6194230130415832  1.0000
  H   H109      1.0  0.12486697666444262  0.42016938110317886  0.9821330208259909  1.0000
  H   H110      1.0  0.021445411178071104  0.4644833020963974  0.047841736332955444  1.0000
  H   H111      1.0  0.07804489195304139  0.6232080313145546  0.02999455760581068  1.0000
  H   H112      1.0  0.18314803180165032  0.5758160596934518  0.9663299772651399  1.0000
  H   H113      1.0  0.9210075333118012  0.5362987831264834  0.06917318089980999  1.0000
  H   H114      1.0  0.8208483586385996  0.5730983587352797  0.13797450059732336  1.0000
  H   H115      1.0  0.8191443059563001  0.6340029723811967  0.19123097358766458  1.0000
  H   H116      1.0  0.021187529512921802  0.6179286797738683  0.10714931509925656  1.0000
  H   H117      1.0  0.8634077895586074  0.6220696598921978  0.2518226374189608  1.0000
  H   H118      1.0  0.8534559587031724  0.6912516539729552  0.3022370072839351  1.0000
  H   H119      1.0  0.9559545095782483  0.7993158430557586  0.17041931647479194  1.0000
  H   H120      1.0  0.9661040770458909  0.7305374405108866  0.1194421081651385  1.0000
  H   H121      1.0  0.47279148685940703  0.12497805517870836  0.9820434552638772  1.0000
  H   H122      1.0  0.4663199829010339  0.02148592976121929  0.047759006160980284  1.0000
  H   H123      1.0  0.2689351845637233  0.07778498845394927  0.02994038077708435  1.0000
  H   H124      1.0  0.2747185036709254  0.1829847119496223  0.9662945732558867  1.0000
  H   H125      1.0  0.47352255851190955  0.9209220866275702  0.06921143730663464  1.0000
  H   H126      1.0  0.4678878646641493  0.8208678192344724  0.13810718448620912  1.0000
  H   H127      1.0  0.3553564791536061  0.8193762247326363  0.19129368069945935  1.0000
  H   H128      1.0  0.25378457255462195  0.021330631763696324  0.1069818500013326  1.0000
  H   H129      1.0  0.26275087384357215  0.8636408409531386  0.2517397280601585  1.0000
  H   H130      1.0  0.153200063804654  0.853517771317023  0.3022274237926155  1.0000
  H   H131      1.0  0.07427776284897192  0.9559194307641905  0.170488214276979  1.0000
  H   H132      1.0  0.18382387521178603  0.9661659113103627  0.11942312224061868  1.0000
  H   H133      1.0  0.42013688716936304  0.47273255234091494  0.9820998877523265  1.0000
  H   H134      1.0  0.4644480909049379  0.4661901325613301  0.04782401763957713  1.0000
  H   H135      1.0  0.6232566794094794  0.2688304568916636  0.02993470401764144  1.0000
  H   H136      1.0  0.5758552090321061  0.2746776201208052  0.966291927268024  1.0000
  H   H137      1.0  0.5362694077787253  0.4733956243660061  0.06921841565621627  1.0000
  H   H138      1.0  0.5730186973175507  0.4678680010790614  0.13810770937592304  1.0000
  H   H139      1.0  0.633852272898352  0.35539961163971895  0.1913298941879943  1.0000
  H   H140      1.0  0.617837604403377  0.25365743704565347  0.10708044076180552  1.0000
  H   H141      1.0  0.6218224826788941  0.26277731843611474  0.2518085946200798  1.0000
  H   H142      1.0  0.6910551094120264  0.15329843493834272  0.3022889468673284  1.0000
  H   H143      1.0  0.7993121097290371  0.07434186839797977  0.17056251019825197  1.0000
  H   H144      1.0  0.7305269043559691  0.18385253377024918  0.11950111881172625  1.0000
  C   C1        1.0  0.0600103631408118  0.17296417193976776  0.4549138285628089  1.0000
  C   C2        1.0  0.14256621988921134  0.00032505743755709875  0.6179025818427561  1.0000
  C   C3        1.0  0.0192846731551413  0.17856666049546283  0.4243766562252773  1.0000
  C   C4        1.0  0.1382839036080981  0.9381492017070487  0.6571728459145875  1.0000
  C   C5        1.0  0.9669203573473127  0.15558584012185162  0.4479886749436091  1.0000
  C   C6        1.0  0.0327358603508614  0.20623721732418693  0.3721904312985416  1.0000
  C   C7        1.0  0.08863314863354792  0.915882542200393  0.6651546311738769  1.0000
  C   C8        1.0  0.18538899394582842  0.900816858192357  0.6869828630802246  1.0000
  C   C9        1.0  0.9290457993354906  0.15975410096594822  0.41987392904390197  1.0000
  C   C10       1.0  0.9940009577605339  0.21128281432880403  0.34425377104425786  1.0000
  C   C11       1.0  0.0870443910044543  0.8568822689989163  0.7019016567833348  1.0000
  C   C12       1.0  0.1833337596542464  0.8424131373588327  0.723865426481332  1.0000
  C   C13       1.0  0.9416622582770555  0.1879496184362922  0.367570259780834  1.0000
  C   C14       1.0  0.1342085080750834  0.8190217077534926  0.7320496738799134  1.0000
  C   C15       1.0  0.9002519024663158  0.19298471398404632  0.3382693753879521  1.0000
  C   C16       1.0  0.1326300074817794  0.7569174263991061  0.7717734554690097  1.0000
  C   C17       1.0  0.8790668109035523  0.14095947260688757  0.35020283261930973  1.0000
  C   C18       1.0  0.8797896132673202  0.25042971678637843  0.29898462179894386  1.0000
  C   C19       1.0  0.19314553247453148  0.703862049269681  0.7843561134760151  1.0000
  C   C20       1.0  0.8387113394706561  0.14642892774187277  0.32328753068322386  1.0000
  C   C21       1.0  0.17297818119690334  0.3121413550215451  0.45497661447013366  1.0000
  C   C22       1.0  0.0001938435851585003  0.239314616021538  0.6179077701797907  1.0000
  C   C23       1.0  0.17855720529689018  0.3777987993194571  0.4244393486976961  1.0000
  C   C24       1.0  0.9380569607408731  0.2665152361741436  0.6572048886679694  1.0000
  C   C25       1.0  0.1555577010633797  0.42957587261569324  0.44801003680609597  1.0000
  C   C26       1.0  0.2062438052990601  0.38882916296755354  0.3722482327414056  1.0000
  C   C27       1.0  0.9158190271853855  0.33041223538516834  0.6652290082089891  1.0000
  C   C28       1.0  0.9007124025969733  0.22694350466987612  0.6870043669380691  1.0000
  C   C29       1.0  0.15976026650729117  0.49137238199530503  0.41986036095688917  1.0000
  C   C30       1.0  0.2113057897636139  0.45044189937866724  0.3442828376884322  1.0000
  C   C31       1.0  0.8568324222287488  0.3542306884298797  0.702000493409514  1.0000
  C   C32       1.0  0.8423403938478203  0.2504892337147879  0.7239112016759179  1.0000
  C   C33       1.0  0.18799303574151338  0.5028314214905693  0.3675604798596411  1.0000
  C   C34       1.0  0.8189739928979379  0.31477894074085816  0.7321334310570221  1.0000
  C   C35       1.0  0.19304949195976923  0.5685023722495188  0.3382406963113808  1.0000
  C   C36       1.0  0.7568803069605395  0.3386996276102254  0.7718537902291728  1.0000
  C   C37       1.0  0.14106354223165601  0.6297615768284431  0.3502099025359867  1.0000
  C   C38       1.0  0.2504474590911272  0.5708522484438562  0.2988982165544484  1.0000
  C   C39       1.0  0.7038035537485571  0.31869228955667245  0.7843803621515589  1.0000
  C   C40       1.0  0.14650574102427072  0.6915647830925811  0.32329018354960226  1.0000
  C   C41       1.0  0.3120190608372866  0.05995893029955113  0.45492633310767866  1.0000
  C   C42       1.0  0.23931691841987396  0.1424675312487551  0.6179418662611695  1.0000
  C   C43       1.0  0.3776348519833448  0.0191424545897974  0.4244337994971019  1.0000
  C   C44       1.0  0.26655094765560255  0.1381557964370684  0.6572069016746483  1.0000
  C   C45       1.0  0.42937888327337254  0.9668013494588908  0.44803424713647627  1.0000
  C   C46       1.0  0.38872150685067197  0.032625257808184906  0.3722319390964444  1.0000
  C   C47       1.0  0.33044144259062597  0.08844349773156786  0.6652189976037803  1.0000
  C   C48       1.0  0.22705627269036913  0.18528750291203275  0.6869816967054447  1.0000
  C   C49       1.0  0.4912285890267185  0.9290558838758051  0.41988832697870737  1.0000
  C   C50       1.0  0.45036434172860856  0.9939669034201234  0.3442809305327754  1.0000
  C   C51       1.0  0.35434288663869035  0.08688069280009364  0.7019272511088631  1.0000
  C   C52       1.0  0.2506833333760099  0.1832533656583878  0.7238334257420362  1.0000
  C   C53       1.0  0.5027527009604426  0.9416873179920203  0.367571760591666  1.0000
  C   C54       1.0  0.3149852393092019  0.1341128589010694  0.7320230977667705  1.0000
  C   C55       1.0  0.5684737688823277  0.9003667368300091  0.33826020432670834  1.0000
  C   C56       1.0  0.33893911568188884  0.13258500407518878  0.7717362045742178  1.0000
  C   C57       1.0  0.6297170101677381  0.8791257848902848  0.3502604712924292  1.0000
  C   C58       1.0  0.5708284431163405  0.8800066477631748  0.2988867870343768  1.0000
  C   C59       1.0  0.3188610201995559  0.19309643059933285  0.7843556242065688  1.0000
  C   C60       1.0  0.691502188350931  0.8387945664168656  0.32334279705373353  1.0000
  C   C61       1.0  0.8121400892798505  0.6729792379453702  0.9549763337204523  1.0000
  C   C62       1.0  0.739316663803386  0.5001936425826229  0.11790790613878956  1.0000
  C   C63       1.0  0.8777988720131731  0.6785573562275006  0.924438587605259  1.0000
  C   C64       1.0  0.7665152503127358  0.43805590304390335  0.15720510723499362  1.0000
  C   C65       1.0  0.9295755437462458  0.6555580867206532  0.9480099852180641  1.0000
  C   C66       1.0  0.8888298081690351  0.7062431770919702  0.8722475386452685  1.0000
  C   C67       1.0  0.8304119406213316  0.41582002022605735  0.16522867169786082  1.0000
  C   C68       1.0  0.7269443607041522  0.40071390009986657  0.18700319773263627  1.0000
  C   C69       1.0  0.9913716001456905  0.6597598939088487  0.9198606743954371  1.0000
  C   C70       1.0  0.9504434758355061  0.7113048707005802  0.8442822706495434  1.0000
  C   C71       1.0  0.8542306649804344  0.35683184234488163  0.2020008810050555  1.0000
  C   C72       1.0  0.7504877638673051  0.3423402688605466  0.2239115768379349  1.0000
  C   C73       1.0  0.0028314635344486006  0.6879929146050827  0.8675603372162967  1.0000
  C   C74       1.0  0.8147779229603316  0.3189756848073061  0.2321334231140071  1.0000
  C   C75       1.0  0.06850336597108252  0.693048775321934  0.8382411036430142  1.0000
  C   C76       1.0  0.8386985758209279  0.25688140381967633  0.271853961853594  1.0000
  C   C77       1.0  0.1297629866465471  0.6410632245648602  0.8502107082640575  1.0000
  C   C78       1.0  0.07085272886013881  0.7504466781814543  0.798899148247031  1.0000
  C   C79       1.0  0.8186915553044543  0.20380450941542705  0.284379802082924  1.0000
  C   C80       1.0  0.19156624346937431  0.6465047882284055  0.8232908247751992  1.0000
  C   C81       1.0  0.559958394588172  0.8120185507527039  0.9549270525983359  1.0000
  C   C82       1.0  0.6424676029010996  0.7393174508268249  0.1179414404964802  1.0000
  C   C83       1.0  0.5191416482972002  0.877635044031919  0.9244344042612268  1.0000
  C   C84       1.0  0.6381543441826807  0.7665499310014426  0.15720709812524084  1.0000
  C   C85       1.0  0.46680167409341067  0.929378445457914  0.9480347464926169  1.0000
  C   C86       1.0  0.5326248674524835  0.8887214520255072  0.8722324910485638  1.0000
  C   C87       1.0  0.5884429972651759  0.8304407729581773  0.16521948303821427  1.0000
  C   C88       1.0  0.6852866573999207  0.7270557836870711  0.18698253293451467  1.0000
  C   C89       1.0  0.42905583322064433  0.9912271798226656  0.9198899325268997  1.0000
  C   C90       1.0  0.49396662132646446  0.9503632549488401  0.8442821534399769  1.0000
  C   C91       1.0  0.5868792863725147  0.8543425503766142  0.2019272473528844  1.0000
  C   C92       1.0  0.6832508067589345  0.7506831962171319  0.22383502400154498  1.0000
  C   C93       1.0  0.4416868692579712  0.0027530006741330335  0.8675726554772324  1.0000
  C   C94       1.0  0.6341104008293855  0.8149853885659296  0.23202392512759232  1.0000
  C   C95       1.0  0.40036631976268217  0.06847435633400784  0.8382610193433635  1.0000
  C   C96       1.0  0.6325843387411609  0.8389388431877052  0.2717356049517008  1.0000
  C   C97       1.0  0.3791258513466503  0.1297157975007579  0.8502623801266083  1.0000
  C   C98       1.0  0.3800061293808312  0.07082883428770978  0.7988873627382134  1.0000
  C   C99       1.0  0.6930954344832045  0.8188612996315998  0.2843542705311889  1.0000
  C   C100      1.0  0.3387950599544284  0.19150151829432363  0.8233444236480523  1.0000
  C   C101      1.0  0.6729629747895133  0.5600097879607447  0.9549153791950857  1.0000
  C   C102      1.0  0.5003243860179934  0.6425661428228439  0.11790291884082657  1.0000
  C   C103      1.0  0.6785650896562173  0.5192837078613126  0.9243791064085228  1.0000
  C   C104      1.0  0.4381507978578653  0.638281794471155  0.1571728159717908  1.0000
  C   C105      1.0  0.655584411113246  0.46691956152250225  0.9479895552491157  1.0000
  C   C106      1.0  0.7062356177585728  0.5327360720745559  0.8721918519935061  1.0000
  C   C107      1.0  0.4158836694329792  0.5886324693289778  0.1651539630288923  1.0000
  C   C108      1.0  0.4008180247292544  0.6853868065583982  0.18698367671758115  1.0000
  C   C109      1.0  0.6597531955569167  0.429045900190225  0.9198740261968082  1.0000
  C   C110      1.0  0.7112820914531284  0.49400086150621575  0.8442548818369459  1.0000
  C   C111      1.0  0.35688389199378184  0.5870431502663466  0.20190135480622462  1.0000
  C   C112      1.0  0.34241396322038753  0.6833322937230335  0.2238657966114417  1.0000
  C   C113      1.0  0.6879483459863992  0.44166211028983343  0.8675715517139508  1.0000
  C   C114      1.0  0.3190219640313572  0.6342078292620246  0.23205064316719154  1.0000
  C   C115      1.0  0.6929840369841288  0.40025341137506854  0.8382692899901442  1.0000
  C   C116      1.0  0.2569182327126498  0.6326292731553382  0.2717739467513239  1.0000
  C   C117      1.0  0.6409585976602229  0.3790672120515241  0.8502031572991058  1.0000
  C   C118      1.0  0.7504284400599488  0.37979087358066727  0.7989844497780751  1.0000
  C   C119      1.0  0.2038624955364838  0.6931450219746367  0.28435633165437213  1.0000
  C   C120      1.0  0.6464288839431661  0.3387115348336849  0.8232879889930872  1.0000
  C   C121      1.0  0.8779284458299228  0.9664115844705141  0.43183009049776894  1.0000
  C   C122      1.0  0.8741315139344862  0.995027857774233  0.4701452429253623  1.0000
  C   C123      1.0  0.9282577938422849  0.964601930967646  0.49297026819317585  1.0000
  C   C124      1.0  0.9244528454213848  0.9901465925598534  0.5294745007958853  1.0000
  C   C125      1.0  0.8670680115439852  0.04737268404082333  0.5440303422438291  1.0000
  C   C126      1.0  0.8133578716825625  0.07795199901224956  0.5203764882931381  1.0000
  C   C127      1.0  0.8164865855636094  0.05200412169004664  0.4843080685838714  1.0000
  C   C128      1.0  0.8637187834105619  0.07333238987376944  0.5833782412481554  1.0000
  C   C129      1.0  0.9237720692580141  0.06130442008087302  0.5928559871615704  1.0000
  C   C130      1.0  0.9207854080310156  0.08240124838603445  0.6317013012687483  1.0000
  C   C131      1.0  0.8579644397284838  0.11654056424401939  0.6613188943116128  1.0000
  C   C132      1.0  0.7970578083859436  0.13167897204090925  0.6517233391496049  1.0000
  C   C133      1.0  0.8008106413958701  0.10929399847864125  0.6129327102168958  1.0000
  C   C134      1.0  0.7311170580965297  0.17113507780805998  0.6819930952099611  1.0000
  C   C135      1.0  0.7217823330499796  0.16106622250759278  0.7337110993201392  1.0000
  C   C136      1.0  0.6606543291631864  0.19936415133806676  0.7621645784101432  1.0000
  C   C137      1.0  0.6071426685232879  0.24952860184429687  0.7395352296342281  1.0000
  C   C138      1.0  0.6158668569214214  0.2599960677011098  0.6880278599786038  1.0000
  C   C139      1.0  0.6769596612851956  0.22104713038468302  0.6597645195973102  1.0000
  C   C140      1.0  0.5421699639083499  0.2909242913524964  0.7702940090603078  1.0000
  C   C141      1.0  0.9663203200031205  0.723775915560957  0.4318725700704319  1.0000
  C   C142      1.0  0.9950211492156668  0.6606168963973504  0.47014891761028127  1.0000
  C   C143      1.0  0.9646211255663958  0.6140628995550016  0.49299755544307533  1.0000
  C   C144      1.0  0.9901737875974277  0.5558472798588743  0.5294985013992175  1.0000
  C   C145      1.0  0.0474235356526194  0.5414375420396598  0.5440593615491379  1.0000
  C   C146      1.0  0.0779395934078337  0.5882874062919116  0.520422682065501  1.0000
  C   C147      1.0  0.05197479712412441  0.647158178283256  0.48434208248180244  1.0000
  C   C148      1.0  0.0734227353918797  0.47940550157161965  0.5833628873911181  1.0000
  C   C149      1.0  0.06138896215245639  0.4219204016174914  0.592796142149119  1.0000
  C   C150      1.0  0.08252788096124421  0.3649127339455376  0.6316038510858419  1.0000
  C   C151      1.0  0.11671756326329327  0.3639140069943069  0.661226956668166  1.0000
  C   C152      1.0  0.1318495213017954  0.4192716759580933  0.6516835193907156  1.0000
  C   C153      1.0  0.1094267790285315  0.4767250227876548  0.6129338294455663  1.0000
  C   C154      1.0  0.17127887940048228  0.4155854278520437  0.6819557926377797  1.0000
  C   C155      1.0  0.1612554574205731  0.3833326317341062  0.7336792487538304  1.0000
  C   C156      1.0  0.19953040822910853  0.37787036664614254  0.7621017540422628  1.0000
  C   C157      1.0  0.24965541773477895  0.40390188154201917  0.7394458544077196  1.0000
  C   C158      1.0  0.2600612483434901  0.4361928777543228  0.6879360375216946  1.0000
  C   C159      1.0  0.221120685638077  0.4421850721123164  0.6597116165845378  1.0000
  C   C160      1.0  0.2910539411603281  0.39675483590252014  0.7702048081979528  1.0000
  C   C161      1.0  0.7237741633750829  0.8778569580609245  0.43184391327586974  1.0000
  C   C162      1.0  0.6605997185470258  0.8741598776941188  0.4701191243032667  1.0000
  C   C163      1.0  0.6141100175261585  0.9283063688567527  0.4929282883916103  1.0000
  C   C164      1.0  0.5558448701972692  0.9245584198692643  0.5294242791235603  1.0000
  C   C165      1.0  0.5413841366136722  0.8672046305595559  0.5439900572024853  1.0000
  C   C166      1.0  0.5881360775803373  0.8134641893959157  0.5203580408092775  1.0000
  C   C167      1.0  0.6470370516033982  0.816540521151637  0.4843046903927331  1.0000
  C   C168      1.0  0.4794208074312891  0.863863090345582  0.5833150980679065  1.0000
  C   C169      1.0  0.4218949710000857  0.9238736498085063  0.592812832048118  1.0000
  C   C170      1.0  0.36495991918510384  0.9208262486612503  0.6316689362123212  1.0000
  C   C171      1.0  0.36409101687652884  0.8579665876541751  0.6612704954546942  1.0000
  C   C172      1.0  0.41948367985652624  0.7971002034518266  0.6516515735806295  1.0000
  C   C173      1.0  0.47685476590184817  0.800915981373834  0.612842757974164  1.0000
  C   C174      1.0  0.41580059819727216  0.7311066140491107  0.6819219806248993  1.0000
  C   C175      1.0  0.38351852629765665  0.7217455266825683  0.7336388871709969  1.0000
  C   C176      1.0  0.37796100790738046  0.6605857647080244  0.7621003632309779  1.0000
  C   C177      1.0  0.4039516422488417  0.6070731257104571  0.7394728731871395  1.0000
  C   C178      1.0  0.43624851788550256  0.6158024603387632  0.6879625654466679  1.0000
  C   C179      1.0  0.4423147887752847  0.67691998470675  0.6596924506947489  1.0000
  C   C180      1.0  0.39674165812934353  0.5421026541589173  0.770236861836615  1.0000
  C   C181      1.0  0.22377492898699813  0.4663188685013182  0.9318726179359517  1.0000
  C   C182      1.0  0.1606162882961542  0.49502147162646554  0.9701483149469682  1.0000
  C   C183      1.0  0.11406264646602442  0.46462135594534  0.9929972097532058  1.0000
  C   C184      1.0  0.0558465800532844  0.49017495534514677  0.029498419002422307  1.0000
  C   C185      1.0  0.041437432086780704  0.5474241476622979  0.044059071666254085  1.0000
  C   C186      1.0  0.0882875355450849  0.5779409322704584  0.020421083205881947  1.0000
  C   C187      1.0  0.1471567241505056  0.551975309376964  0.9843414860016253  1.0000
  C   C188      1.0  0.9794044385409678  0.5734229142839948  0.08336182630024076  1.0000
  C   C189      1.0  0.921920551384403  0.5613896895728276  0.09279555014690286  1.0000
  C   C190      1.0  0.8649111853502376  0.5825290612905933  0.13160365893232037  1.0000
  C   C191      1.0  0.8639128590625803  0.6167176249836004  0.16122665767330346  1.0000
  C   C192      1.0  0.9192711138018765  0.631849604656672  0.151682689435809  1.0000
  C   C193      1.0  0.9767245072303934  0.6094276988649554  0.11293271161525816  1.0000
  C   C194      1.0  0.915585251015024  0.6712788826787277  0.18195588252390135  1.0000
  C   C195      1.0  0.8833327021859249  0.6612550362749803  0.23368006864360058  1.0000
  C   C196      1.0  0.8778700935689585  0.6995291760210237  0.2621012616075332  1.0000
  C   C197      1.0  0.9039020341220122  0.7496552344998694  0.23944457378004094  1.0000
  C   C198      1.0  0.9361944840119208  0.7600602853248549  0.18793555091003358  1.0000
  C   C199      1.0  0.9421856826941737  0.721120467426978  0.15971153526363932  1.0000
  C   C200      1.0  0.8967550953823745  0.7910531897407724  0.27020468588952423  1.0000
  C   C201      1.0  0.3778566167475361  0.22377517205534778  0.9318439348759212  1.0000
  C   C202      1.0  0.37415998790189064  0.16059970696043288  0.9701193115174078  1.0000
  C   C203      1.0  0.4283061137176388  0.11411035985003798  0.9929281256173539  1.0000
  C   C204      1.0  0.4245588985409512  0.05584321093498803  0.029424564243186086  1.0000
  C   C205      1.0  0.36720363505368425  0.04138327097324186  0.043989554118617484  1.0000
  C   C206      1.0  0.3134645025807785  0.0881358914123851  0.020358281924949  1.0000
  C   C207      1.0  0.3165396780824352  0.14703898063029197  0.9843042439646511  1.0000
  C   C208      1.0  0.3638645088825784  0.9794195582387534  0.08331358852257134  1.0000
  C   C209      1.0  0.423874306493957  0.921895029007821  0.09281146813047772  1.0000
  C   C210      1.0  0.42082729541499475  0.8649605517520271  0.13166759936476785  1.0000
  C   C211      1.0  0.3579672956263167  0.864091199792384  0.16126974954062936  1.0000
  C   C212      1.0  0.29710109641801813  0.9194840986399769  0.15164971127780547  1.0000
  C   C213      1.0  0.30091697163432235  0.9768539526140502  0.11284159241479584  1.0000
  C   C214      1.0  0.23110683434155274  0.9158011824578272  0.18192162889928196  1.0000
  C   C215      1.0  0.22174656027373632  0.8835187729766006  0.23363838395408718  1.0000
  C   C216      1.0  0.16058538493302174  0.8779618695720187  0.26210045289020206  1.0000
  C   C217      1.0  0.1070734861002833  0.9039515891414214  0.23947303113389753  1.0000
  C   C218      1.0  0.11580227555158729  0.9362496498871811  0.18796252931493726  1.0000
  C   C219      1.0  0.1769207186854516  0.942315366369222  0.15969195626755808  1.0000
  C   C220      1.0  0.0421028329973012  0.896741236605287  0.2702368649215998  1.0000
  C   C221      1.0  0.4664117027000998  0.37792754805261103  0.9318305721304583  1.0000
  C   C222      1.0  0.4950280247154666  0.37413001622870473  0.9701458895698138  1.0000
  C   C223      1.0  0.46460226722947345  0.4282573264927053  0.9929705582027425  1.0000
  C   C224      1.0  0.4901467351316739  0.4244528547495394  0.02947442710845384  1.0000
  C   C225      1.0  0.5473735633773559  0.3670670979143509  0.04403061009914207  1.0000
  C   C226      1.0  0.5779519490401483  0.3133578952290821  0.020376403095482918  1.0000
  C   C227      1.0  0.5520039296273324  0.31648696564463574  0.9843078573288581  1.0000
  C   C228      1.0  0.5733325547017004  0.36371844712994794  0.08337854637317572  1.0000
  C   C229      1.0  0.5613043985443298  0.4237724948246752  0.09285579125783976  1.0000
  C   C230      1.0  0.5824021391140874  0.4207852903014668  0.13170098674248723  1.0000
  C   C231      1.0  0.6165421303536577  0.35796391706819747  0.161318478685537  1.0000
  C   C232      1.0  0.6316802919247166  0.29705815483443854  0.15172271695422515  1.0000
  C   C233      1.0  0.6092946708395246  0.3008110748505999  0.11293226636198746  1.0000
  C   C234      1.0  0.6711358783766456  0.23111754650236804  0.1819925711339038  1.0000
  C   C235      1.0  0.6610672004973922  0.22178209666925858  0.23371108055275153  1.0000
  C   C236      1.0  0.699364511448195  0.16065482039959297  0.2621651790523812  1.0000
  C   C237      1.0  0.7495289815561249  0.10714253358938929  0.23953566414795088  1.0000
  C   C238      1.0  0.7599963126818069  0.11586624631484457  0.18802881889154585  1.0000
  C   C239      1.0  0.7210470731632412  0.1769601796097647  0.15976356231762173  1.0000
  C   C240      1.0  0.790924593510546  0.04217052666972178  0.2702945680196365  1.0000
  O   O1        1.0  0.040185608319156095  0.15241953740983402  0.5026571362270289  1.0000
  O   O2        1.0  0.0932235985995433  0.039538666148622816  0.5964869826997514  1.0000
  O   O3        1.0  0.0098285880720326  0.1857753680244514  0.6086840711746149  1.0000
  O   O4        1.0  0.1110640077730167  0.18875876630003324  0.4314883599253818  1.0000
  O   O5        1.0  0.15248538505451134  0.30473701384072177  0.5027215522055712  1.0000
  O   O6        1.0  0.0394256505116317  0.2708464040606415  0.5964651518772612  1.0000
  O   O7        1.0  0.18575625171134655  0.19556598270177267  0.6087399742147568  1.0000
  O   O8        1.0  0.18873593843665054  0.2687598280118308  0.4315232616895557  1.0000
  O   O9        1.0  0.3045688083300888  0.0401626542944555  0.5026760558928132  1.0000
  O   O10       1.0  0.2708628408032324  0.09317207326333235  0.5964780445333275  1.0000
  O   O11       1.0  0.19569423671163833  0.009964794017818713  0.6086722043934928  1.0000
  O   O12       1.0  0.2687212571868897  0.11111435047507007  0.43145170796187665  1.0000
  O   O13       1.0  0.804736057332768  0.6524865713063834  0.0027215335530214324  1.0000
  O   O14       1.0  0.7708460302563722  0.5394261417862938  0.09646582503880544  1.0000
  O   O15       1.0  0.6955662867999309  0.6857573731410727  0.10873994603829819  1.0000
  O   O16       1.0  0.7687589748927762  0.6887368773479922  0.9315229001521601  1.0000
  O   O17       1.0  0.5401613118245904  0.8045697251875128  0.0026759790697143035  1.0000
  O   O18       1.0  0.593171524280116  0.7708643367571212  0.09647719136550857  1.0000
  O   O19       1.0  0.5099651039513377  0.6956936717910197  0.10867206066370012  1.0000
  O   O20       1.0  0.6111138711821839  0.768721520235289  0.9314514824102884  1.0000
  O   O21       1.0  0.6524179386675543  0.5401866848898108  0.0026580288485575907  1.0000
  O   O22       1.0  0.539538950080093  0.5932231266144329  0.09648780139831813  1.0000
  O   O23       1.0  0.6857762957385064  0.5098291677154024  0.10868331684801547  1.0000
  O   O24       1.0  0.6887577626001901  0.6110629028789631  0.9314893498884445  1.0000
  O   O25       1.0  0.15614865823769014  0.15627141976604977  0.5314377712900366  1.0000
  O   O26       1.0  0.6562715166761066  0.6561490995612472  0.031437684195139974  1.0000
  O   O27       1.0  0.8253684657968209  0.9936950122475001  0.4145911864578975  1.0000
  O   O28       1.0  0.9335749279695238  0.9166813366438761  0.41915849643515174  1.0000
  O   O29       1.0  0.4964760671551502  0.33880163332125346  0.747528186400551  1.0000
  O   O30       1.0  0.5375287066669544  0.2750982360463325  0.8174952228036644  1.0000
  O   O31       1.0  0.9936488914182035  0.7662773637790823  0.41458740737509464  1.0000
  O   O32       1.0  0.9164993124710961  0.7305797419772874  0.4192836248020343  1.0000
  O   O33       1.0  0.3388084422966386  0.4175284229071253  0.7474659038269991  1.0000
  O   O34       1.0  0.27536296513168423  0.3698176499426112  0.8173758297770987  1.0000
  O   O35       1.0  0.7662193219899507  0.8252977364440925  0.4145905123818564  1.0000
  O   O36       1.0  0.7306574189318482  0.9334240044635325  0.4192232590085325  1.0000
  O   O37       1.0  0.4175782363992369  0.49629726965179805  0.7475018296694104  1.0000
  O   O38       1.0  0.3697228260214942  0.5375779737756688  0.8174032167749984  1.0000
  O   O39       1.0  0.2662764760206572  0.4936483984935977  0.9145877960510163  1.0000
  O   O40       1.0  0.23057900147359334  0.4164989181606771  0.9192842654750562  1.0000
  O   O41       1.0  0.9175286254495346  0.838807951778293  0.2474663942862066  1.0000
  O   O42       1.0  0.8698183101090178  0.7753623983056457  0.31737586370151405  1.0000
  O   O43       1.0  0.3252964992663864  0.2662205889683733  0.9145910840598219  1.0000
  O   O44       1.0  0.43342448352846935  0.2306571938305454  0.91922340001544  1.0000
  O   O45       1.0  0.9962973976293698  0.9175786077669915  0.24750140502452192  1.0000
  O   O46       1.0  0.03757918782532241  0.869721848114999  0.31740306748063307  1.0000
  O   O47       1.0  0.49369574672046923  0.3253692891333985  0.914590929611684  1.0000
  O   O48       1.0  0.416679688107294  0.4335751082213762  0.9191592102759784  1.0000
  O   O49       1.0  0.8388028456168258  0.996475420057358  0.24752845468162823  1.0000
  O   O50       1.0  0.775097669848364  0.037529116515550257  0.3174957646240772  1.0000
  O   O51       1.0  0.8840017460864827  0.883985227846459  0.34800452675295906  1.0000
  O   O52       1.0  0.3839859204916749  0.38400201652063276  0.8480038130693401  1.0000
