data_image0
_chemical_formula_structural       Cd8H160C232N48O32
_chemical_formula_sum              "Cd8 H160 C232 N48 O32"
_cell_length_a       21.913042343867996
_cell_length_b       21.92016578451485
_cell_length_c       22.64140845803772
_cell_angle_alpha    118.94264086552273
_cell_angle_beta     118.9406668280141
_cell_angle_gamma    90.01476808728823

_space_group_name_H-M_alt    "P 1"
_space_group_IT_number       1

loop_
  _space_group_symop_operation_xyz
  'x, y, z'

loop_
  _atom_site_type_symbol
  _atom_site_label
  _atom_site_symmetry_multiplicity
  _atom_site_fract_x
  _atom_site_fract_y
  _atom_site_fract_z
  _atom_site_occupancy
  Cd  Cd1       1.0  0.08798514735998714  0.649716374876931  0.5075031941044656  1.0000
  Cd  Cd2       1.0  0.10764202723905913  0.8377323904554713  0.007314314944544261  1.0000
  Cd  Cd3       1.0  0.4195043836201507  0.8578237149059195  0.5073356762684967  1.0000
  Cd  Cd4       1.0  0.8997934927137193  0.16962010360255428  0.007567692386892611  1.0000
  Cd  Cd5       1.0  0.4399950119617983  0.4757604188021247  0.20662898447753963  1.0000
  Cd  Cd6       1.0  0.9810687055246988  0.1902005751278467  0.7067285553063416  1.0000
  Cd  Cd7       1.0  0.7664549592195085  0.7307822257406328  0.2067001168125698  1.0000
  Cd  Cd8       1.0  0.7258011843191311  0.5166923220194166  0.7069359304988723  1.0000
  H   H1        1.0  0.10030882791112807  0.4612684878308214  0.8848307435651818  1.0000
  H   H2        1.0  0.6737102290127054  0.8501352347939816  0.3852447507826041  1.0000
  H   H3        1.0  0.7849715045402093  0.4234631014429908  0.8852972713555828  1.0000
  H   H4        1.0  0.7112442896033713  0.534936310314052  0.38513100452215093  1.0000
  H   H5        1.0  0.36910535576015496  0.5514897630117732  0.021731489952472392  1.0000
  H   H6        1.0  0.7205241137924503  0.11880378108795507  0.5217006291596392  1.0000
  H   H7        1.0  0.6525891463499178  0.4705011252822332  0.021667717339980123  1.0000
  H   H8        1.0  0.801025905670528  0.4029135285618538  0.5217985083623944  1.0000
  H   H9        1.0  0.28486524870970004  0.564198464286136  0.9073424077054496  1.0000
  H   H10       1.0  0.5933085980016557  0.03458039769745375  0.40766891142619954  1.0000
  H   H11       1.0  0.6228723142305838  0.3432357501530987  0.9078500363222657  1.0000
  H   H12       1.0  0.8143364146384968  0.3731355377148662  0.4078667963551937  1.0000
  H   H13       1.0  0.1497758558367224  0.5178686775982015  0.8384052699500515  1.0000
  H   H14       1.0  0.5706603817084853  0.8995462034166409  0.3389774739627073  1.0000
  H   H15       1.0  0.6892948169225049  0.3204463408982861  0.8392040180777582  1.0000
  H   H16       1.0  0.7682104812569648  0.4393694737375072  0.33905838691305223  1.0000
  H   H17       1.0  0.8633794073228174  0.40368257338316493  0.22615964037338185  1.0000
  H   H18       1.0  0.0725518721312001  0.6132767895613114  0.7259303427035492  1.0000
  H   H19       1.0  0.3626190615620573  0.8223917088136405  0.22595188987277484  1.0000
  H   H20       1.0  0.6535114633965903  0.11276755686914443  0.7260345320796799  1.0000
  H   H21       1.0  0.9351251025846069  0.7059644292815079  0.45043043376256964  1.0000
  H   H22       1.0  0.9939792834889687  0.6847370835172415  0.9498460142157726  1.0000
  H   H23       1.0  0.5152568519943728  0.7444690928781698  0.45033384227073003  1.0000
  H   H24       1.0  0.9559410951568097  0.2650445291278558  0.9501987122171442  1.0000
  H   H25       1.0  0.7988515049071339  0.6154596993469144  0.3088460544784226  1.0000
  H   H26       1.0  0.9429322118010288  0.5486287557894727  0.8081451780524913  1.0000
  H   H27       1.0  0.509582867620189  0.6930756500145921  0.3085181891529275  1.0000
  H   H28       1.0  0.865412447348696  0.2597683273422505  0.808647924164852  1.0000
  H   H29       1.0  0.9358011908567577  0.48789846875628484  0.3642692936614509  1.0000
  H   H30       1.0  0.12633582250490594  0.6856691101872914  0.8641617059843583  1.0000
  H   H31       1.0  0.4284420391275816  0.8763154721808917  0.3640726489083264  1.0000
  H   H32       1.0  0.7377930171229464  0.17837093323824862  0.8641632668688572  1.0000
  H   H33       1.0  0.7071208784003743  0.5163398262611096  0.251056863623873  1.0000
  H   H34       1.0  0.984608726026451  0.45707371375888073  0.750782507567564  1.0000
  H   H35       1.0  0.5437220884687477  0.7345306013026944  0.25084056459841264  1.0000
  H   H36       1.0  0.7663825258291298  0.2939956133310985  0.7511877569414552  1.0000
  H   H37       1.0  0.631144698829054  0.289345636326459  0.05810667396706033  1.0000
  H   H38       1.0  0.018937584608437284  0.3811192595841463  0.5579948269995113  1.0000
  H   H39       1.0  0.42674271824076726  0.7685541268379696  0.05786089780884404  1.0000
  H   H40       1.0  0.5393640734886134  0.17696426168041057  0.5580253894080087  1.0000
  H   H41       1.0  0.603298636014017  0.4656024980258737  0.24515579413481708  1.0000
  H   H42       1.0  0.029705354910689343  0.35358612005889256  0.7452309211168213  1.0000
  H   H43       1.0  0.6416925584053671  0.7795145793114173  0.2450931895701842  1.0000
  H   H44       1.0  0.7157482026914009  0.3918372979201692  0.7453672340618451  1.0000
  H   H45       1.0  0.5037114441014694  0.5762136488426748  0.5096215547952951  1.0000
  H   H46       1.0  0.18262821359667208  0.25346287703175113  0.009103421264654818  1.0000
  H   H47       1.0  0.0056791487176895035  0.9328221810345172  0.5092383121592121  1.0000
  H   H48       1.0  0.8264425781807248  0.7558288886841495  0.00969719507058641  1.0000
  H   H49       1.0  0.43045430354906955  0.6561052811116923  0.6724619722386149  1.0000
  H   H50       1.0  0.2659466827939312  0.1802091821087829  0.17189534272796442  1.0000
  H   H51       1.0  0.24179963544649757  0.01609544565337727  0.672016563975241  1.0000
  H   H52       1.0  0.9060853324635688  0.9918653122643807  0.1725327896765805  1.0000
  H   H53       1.0  0.21955307118883388  0.6187992407301977  0.4690118571964064  1.0000
  H   H54       1.0  0.10007842333281068  0.9690985285272407  0.9686764888176357  1.0000
  H   H55       1.0  0.24966692835696583  0.8501780776385247  0.468858125953325  1.0000
  H   H56       1.0  0.8683529000822575  0.9996328292798823  0.9690363740348291  1.0000
  H   H57       1.0  0.3215793843071423  0.6636105105336156  0.4600154324855196  1.0000
  H   H58       1.0  0.04594856439431551  0.0710004044692026  0.9594160452689734  1.0000
  H   H59       1.0  0.1384278107417102  0.7960986377514915  0.45966596681165567  1.0000
  H   H60       1.0  0.9135287321920484  0.8885799030220622  0.960050002166376  1.0000
  H   H61       1.0  0.249028282732894  0.5307223521533686  0.1283731883505439  1.0000
  H   H62       1.0  0.8482944834304291  0.9990165245186804  0.6285421559054355  1.0000
  H   H63       1.0  0.8791212144379442  0.5976989135574371  0.12827279723893525  1.0000
  H   H64       1.0  0.7802523874710801  0.6296221623144049  0.6284406020125104  1.0000
  H   H65       1.0  0.9307126231929884  0.5594436607638187  0.2655735063601907  1.0000
  H   H66       1.0  0.9561513694261379  0.6808562033270819  0.7656506159095927  1.0000
  H   H67       1.0  0.33467301366218283  0.7057699290953465  0.2653983757999896  1.0000
  H   H68       1.0  0.8098043231273947  0.08508881452073078  0.7657518618596058  1.0000
  H   H69       1.0  0.8337455544860503  0.4860257079822007  0.11750618627745267  1.0000
  H   H70       1.0  0.8813996630214406  0.5838741934482601  0.6176089548478458  1.0000
  H   H71       1.0  0.2835924667052083  0.6310674681069558  0.1173766926696658  1.0000
  H   H72       1.0  0.7364064654687966  0.034205775830145196  0.6177797623477232  1.0000
  H   H73       1.0  0.9794844186292407  0.3667417084925405  0.07526902041118409  1.0000
  H   H74       1.0  0.958792300328291  0.729248902349525  0.5751717086554463  1.0000
  H   H75       1.0  0.09575691204171476  0.7083931431926516  0.0749624436918808  1.0000
  H   H76       1.0  0.6166019032555569  0.8462397696884951  0.5751417212037992  1.0000
  H   H77       1.0  0.8602616295508128  0.38997874854111814  0.021749189880395647  1.0000
  H   H78       1.0  0.881920087424852  0.6101499707844553  0.5217687023859411  1.0000
  H   H79       1.0  0.1614524522829725  0.6315358409802981  0.021534130495389433  1.0000
  H   H80       1.0  0.6400136307898591  0.9120987005074852  0.5218487825222055  1.0000
  H   H81       1.0  0.1614223859546016  0.2842254291599319  0.19164001628452348  1.0000
  H   H82       1.0  0.1575125033454725  0.9112555076754207  0.6913423640370412  1.0000
  H   H83       1.0  0.030088365882285324  0.9071893931308848  0.19121995253876614  1.0000
  H   H84       1.0  0.5339834351262597  0.7805138630772249  0.6913543022237008  1.0000
  H   H85       1.0  0.350051246685787  0.6024762579991007  0.2439460454226037  1.0000
  H   H86       1.0  0.8910090169397904  0.09999541014204996  0.7434460408751775  1.0000
  H   H87       1.0  0.8936699944312777  0.6409823294563781  0.2437744390642536  1.0000
  H   H88       1.0  0.8525203509192848  0.643884978245289  0.7439785888828606  1.0000
  H   H89       1.0  0.4453561686638705  0.507256716065875  0.3756011079909313  1.0000
  H   H90       1.0  0.1179956915964767  0.19528343070206944  0.8753979995549059  1.0000
  H   H91       1.0  0.9300193843908459  0.8678557651616785  0.3754260301070004  1.0000
  H   H92       1.0  0.7575043825829296  0.6802514812639443  0.8758820793338059  1.0000
  H   H93       1.0  0.2060025749305224  0.4866786671389036  0.18760661171499748  1.0000
  H   H94       1.0  0.9514761191330193  0.9557977610879291  0.6875582494522021  1.0000
  H   H95       1.0  0.9814064768034924  0.7011066653734588  0.18771953466342936  1.0000
  H   H96       1.0  0.7361023634018976  0.7318474513496797  0.6874761141550464  1.0000
  H   H97       1.0  0.5991028928909472  0.5746267311708805  0.6012261366918776  1.0000
  H   H98       1.0  0.2757360481403878  0.3490231214066242  0.10073137191979231  1.0000
  H   H99       1.0  0.001854024688462576  0.026073790785375178  0.6009964518474149  1.0000
  H   H100      1.0  0.8257157759653139  0.7520825078600026  0.10188132664207213  1.0000
  H   H101      1.0  0.10265423609205729  0.37026944967557535  0.09644427912217422  1.0000
  H   H102      1.0  0.9762967082278919  0.852208306586533  0.5961853277612051  1.0000
  H   H103      1.0  0.9938896473520697  0.7263130181900054  0.096685044225701  1.0000
  H   H104      1.0  0.6197045769033452  0.743906538723195  0.5961482085131777  1.0000
  H   H105      1.0  0.34860966635800844  0.6780045194795576  0.38222735611659436  1.0000
  H   H106      1.0  0.9535819175087782  0.09805187122840651  0.8814268864952693  1.0000
  H   H107      1.0  0.03352281803501702  0.7037756296388551  0.38188911160495553  1.0000
  H   H108      1.0  0.9279699100323737  0.7836964651007751  0.8821007287846355  1.0000
  H   H109      1.0  0.27647872910055327  0.5154532374146399  0.3565127274537615  1.0000
  H   H110      1.0  0.09114958140784779  0.026366199309521176  0.8562011595808627  1.0000
  H   H111      1.0  0.08025948708213795  0.8412444601351796  0.35648021289134135  1.0000
  H   H112      1.0  0.7652309224711542  0.8299603230070218  0.8560877736982844  1.0000
  H   H113      1.0  0.2794893446202024  0.3863008136926922  0.29719988211047615  1.0000
  H   H114      1.0  0.16092121067163137  0.02935095791144696  0.7967656678338528  1.0000
  H   H115      1.0  0.01772561692672518  0.9108732524567883  0.29694062024364576  1.0000
  H   H116      1.0  0.6359582374318224  0.7678933227664262  0.7968586731738441  1.0000
  H   H117      1.0  0.15768616611327238  0.5413915099913353  0.3105605994058961  1.0000
  H   H118      1.0  0.0193094324257641  0.9076618799429781  0.8104465552355361  1.0000
  H   H119      1.0  0.15302996773385033  0.7692733621225614  0.310513089213046  1.0000
  H   H120      1.0  0.7913910700807704  0.9027894561200186  0.8102360596052519  1.0000
  H   H121      1.0  0.38955483140669145  0.7715124873271221  0.7155310577505246  1.0000
  H   H122      1.0  0.1934162204286736  0.13931726229125732  0.21499515162018668  1.0000
  H   H123      1.0  0.32573848223739094  0.943719716027019  0.7152047721074695  1.0000
  H   H124      1.0  0.021398917519853487  0.07579191103874901  0.21537108248799797  1.0000
  H   H125      1.0  0.5304854009707398  0.3345543990677554  0.9970852038904424  1.0000
  H   H126      1.0  0.9125597287901925  0.28033229482711164  0.4970225485524367  1.0000
  H   H127      1.0  0.46653468858646363  0.6623982025260631  0.9969500319477406  1.0000
  H   H128      1.0  0.5848703147654888  0.21678698509711583  0.4971879881184122  1.0000
  H   H129      1.0  0.4113868336741647  0.3606869601967448  0.011331712140545928  1.0000
  H   H130      1.0  0.9009128579059152  0.16142591360053882  0.5116194643953378  1.0000
  H   H131      1.0  0.6000168463672466  0.6509180129839294  0.011376224104637369  1.0000
  H   H132      1.0  0.6110022463696082  0.35025260126555224  0.5117142993926506  1.0000
  H   H133      1.0  0.25239924548809256  0.7750170863969359  0.6935806354851761  1.0000
  H   H134      1.0  0.16817711508830513  0.0023478072982215064  0.19337484470374022  1.0000
  H   H135      1.0  0.44114805528185025  0.9184576373944822  0.693627007943057  1.0000
  H   H136      1.0  0.025052277643858607  0.19112702376167334  0.1936972846055554  1.0000
  H   H137      1.0  0.608302864426861  0.5483300700932645  0.7769235580728305  1.0000
  H   H138      1.0  0.47805510253729017  0.3580329457093543  0.2758534559584405  1.0000
  H   H139      1.0  0.1682616899795876  0.22818695693931088  0.7760365870479049  1.0000
  H   H140      1.0  0.7976313256870212  0.9179248983578318  0.27624740273097337  1.0000
  H   H141      1.0  0.4874458755449211  0.5954340737840625  0.7172937052749403  1.0000
  H   H142      1.0  0.3713589868406473  0.23721938302378484  0.21643131742003163  1.0000
  H   H143      1.0  0.2294050059732982  0.12144106570296735  0.7162979069622323  1.0000
  H   H144      1.0  0.8446420305522152  0.9793208563073251  0.21665807235945073  1.0000
  H   H145      1.0  0.8679567588103936  0.31657384719622444  0.12045929232197498  1.0000
  H   H146      1.0  0.05371400370120224  0.6176487303021716  0.6199654656587227  1.0000
  H   H147      1.0  0.2521584538029984  0.8036961555376436  0.12000166894181058  1.0000
  H   H148      1.0  0.5662363821767115  0.0024157675759682562  0.6202255380415806  1.0000
  H   H149      1.0  0.042556975332701065  0.3033938452363215  0.9469746370024763  1.0000
  H   H150      1.0  0.8935754220198786  0.7922394699739287  0.4467359024678572  1.0000
  H   H151      1.0  0.9047890316973338  0.6435807301881412  0.9471608919146632  1.0000
  H   H152      1.0  0.5529373316235677  0.6544305712531298  0.44671028819156794  1.0000
  H   H153      1.0  0.7297176458242022  0.09985567252314802  0.9699068772177879  1.0000
  H   H154      1.0  0.12109174216442407  0.47999287329928814  0.4705103668391573  1.0000
  H   H155      1.0  0.24037485052257063  0.8703238995602335  0.9699807272879183  1.0000
  H   H156      1.0  0.34957451877560425  0.990443172361971  0.4699318344942822  1.0000
  H   H157      1.0  0.6652099305015896  0.191519715295101  0.04285024683667878  1.0000
  H   H158      1.0  0.10217683189641483  0.41551830217812113  0.5434124130730922  1.0000
  H   H159      1.0  0.37770414230983124  0.8513389387437376  0.04293189538211824  1.0000
  H   H160      1.0  0.44150574892978517  0.12776074629133652  0.5428884831014571  1.0000
  C   C1        1.0  0.20572271817427193  0.4696023675059423  0.9753823628320433  1.0000
  C   C2        1.0  0.7560248413713353  0.955529073964847  0.4754926450838539  1.0000
  C   C3        1.0  0.769677501354657  0.5058270546595054  0.9753249447245976  1.0000
  C   C4        1.0  0.7192507935386984  0.5198906888897312  0.47545060523584937  1.0000
  C   C5        1.0  0.3368572669946274  0.4872770741909063  0.08047802831718791  1.0000
  C   C6        1.0  0.8435544574796976  0.08666130605547548  0.5802409903763318  1.0000
  C   C7        1.0  0.7432695977192196  0.5934936658514403  0.0799250440825502  1.0000
  C   C8        1.0  0.7366364423160617  0.4937380423260649  0.5803725576049955  1.0000
  C   C9        1.0  0.28220195705981876  0.4957736147103874  0.013807038043140119  1.0000
  C   C10       1.0  0.7683303882470512  0.03198510057688253  0.5138140876993447  1.0000
  C   C11       1.0  0.73146355171896  0.5182126296493765  0.013593560102805352  1.0000
  C   C12       1.0  0.7453121379595797  0.4818131384125338  0.5138319088725111  1.0000
  C   C13       1.0  0.1592869581325331  0.47877176035146357  0.9125753860876741  1.0000
  C   C14       1.0  0.6839805233857063  0.9091002412814717  0.4129167904929858  1.0000
  C   C15       1.0  0.7535779163084512  0.43377851748356033  0.912866728072622  1.0000
  C   C16       1.0  0.7286698554186373  0.5036774505822664  0.4128386136905461  1.0000
  C   C17       1.0  0.30977140783539864  0.5304630281715815  0.9896022462378652  1.0000
  C   C18       1.0  0.7093905345511828  0.05950775118495238  0.48968866516007376  1.0000
  C   C19       1.0  0.6798555446795406  0.45932301160686967  0.9896236396806303  1.0000
  C   C20       1.0  0.780137097393208  0.43015852603880944  0.4897548545546044  1.0000
  C   C21       1.0  0.2627304357893223  0.5378480010848606  0.9262264634846956  1.0000
  C   C22       1.0  0.63858145517154  0.012490047813443506  0.42650620474008594  1.0000
  C   C23       1.0  0.6637871910128792  0.3884873146213509  0.9265887725481575  1.0000
  C   C24       1.0  0.7877828990656468  0.4139872046324768  0.4265796013571971  1.0000
  C   C25       1.0  0.1870480478347077  0.5117147299395199  0.8875242153372438  1.0000
  C   C26       1.0  0.6259650304845364  0.9368341523824315  0.38794269469513415  1.0000
  C   C27       1.0  0.7009045538391729  0.3757944615367422  0.8880332323325391  1.0000
  C   C28       1.0  0.7617910307742051  0.4510225470046194  0.38796109722391486  1.0000
  C   C29       1.0  0.8069597573929314  0.4030603211039364  0.20589539830766762  1.0000
  C   C30       1.0  0.05284192381682108  0.5568744188168611  0.7056545913024121  1.0000
  C   C31       1.0  0.39872794467729705  0.802661862967689  0.20564875410723713  1.0000
  C   C32       1.0  0.6529528307301362  0.14889652366279202  0.705774866558535  1.0000
  C   C33       1.0  0.9136663250482685  0.6468129246740731  0.4118722339057115  1.0000
  C   C34       1.0  0.014645411774260918  0.6633896249781798  0.9113455098896849  1.0000
  C   C35       1.0  0.4980559930281244  0.7649532336719602  0.4116714801918063  1.0000
  C   C36       1.0  0.896774291987505  0.2479486830410735  0.9116444096672538  1.0000
  C   C37       1.0  0.7488500988989627  0.33947230783020627  0.13810874543521814  1.0000
  C   C38       1.0  0.048734327584703925  0.49879871715954494  0.6379369074178669  1.0000
  C   C39       1.0  0.3890410293203955  0.7984323328166809  0.13785497160844778  1.0000
  C   C40       1.0  0.5893965464531375  0.13922211925640948  0.6379742587088657  1.0000
  C   C41       1.0  0.7912759707978906  0.4664565647456627  0.24616665888927963  1.0000
  C   C42       1.0  0.02959555082649237  0.5411997673249047  0.745855802226856  1.0000
  C   C43       1.0  0.4546562799898339  0.77948884718829  0.24589322812104808  1.0000
  C   C44       1.0  0.716394507858297  0.20487399307644688  0.7461262756183515  1.0000
  C   C45       1.0  0.8459637301293695  0.60262576843666  0.3426316221046903  1.0000
  C   C46       1.0  0.9896517878483095  0.5957454870174531  0.8421008097076025  1.0000
  C   C47       1.0  0.49642386159483454  0.7398119121418674  0.34238351854391874  1.0000
  C   C48       1.0  0.8525815800329042  0.2464958569966598  0.8424746665828451  1.0000
  C   C49       1.0  0.9176724968919103  0.5353088560414393  0.3697644678199978  1.0000
  C   C50       1.0  0.08431067021417961  0.6675138911094862  0.8695280505345835  1.0000
  C   C51       1.0  0.45200100790138714  0.8343745871274494  0.36956822920393506  1.0000
  C   C52       1.0  0.7852224358790566  0.20196321420552013  0.869638571809638  1.0000
  C   C53       1.0  0.7190280539627166  0.46688817660339776  0.21956459462678876  1.0000
  C   C54       1.0  0.002565624079508711  0.4689679419908117  0.719267053787668  1.0000
  C   C55       1.0  0.5003115238983823  0.75246855780982  0.21931471950610154  1.0000
  C   C56       1.0  0.7169141467943022  0.2505515283101758  0.7196078821667057  1.0000
  C   C57       1.0  0.662263579420447  0.4025232349014092  0.15236798831973195  1.0000
  C   C58       1.0  0.9998384915728878  0.412232773316184  0.6521510567169813  1.0000
  C   C59       1.0  0.48988210993042  0.7496437883466812  0.15213042901065418  1.0000
  C   C60       1.0  0.6525823494299987  0.24010471301262035  0.652380526746633  1.0000
  C   C61       1.0  0.6763006513099299  0.33879876942406656  0.11073382467312606  1.0000
  C   C62       1.0  0.022028557029592763  0.42626182768547954  0.6105620051159732  1.0000
  C   C63       1.0  0.4342004940402475  0.7717112168735837  0.11047142431435468  1.0000
  C   C64       1.0  0.5888032593419154  0.18442040919109806  0.610661666831234  1.0000
  C   C65       1.0  0.5670416735893083  0.4348390057412957  0.1796782105016774  1.0000
  C   C66       1.0  0.9950322908927376  0.31722303604470176  0.6797595953264448  1.0000
  C   C67       1.0  0.6125036400364791  0.7448648716462785  0.17961222153601133  1.0000
  C   C68       1.0  0.685015793545098  0.36269429274680937  0.6798986598849268  1.0000
  C   C69       1.0  0.025805049813108372  0.2901930192438654  0.1335399718273038  1.0000
  C   C70       1.0  0.09350851214858828  0.7757288416387168  0.6334625430338291  1.0000
  C   C71       1.0  0.10742101979210633  0.8430252313020293  0.133039235485164  1.0000
  C   C72       1.0  0.5401845029364194  0.8580404503777573  0.6334257199575503  1.0000
  C   C73       1.0  0.4666063783043768  0.5999985739845357  0.5262858926367073  1.0000
  C   C74       1.0  0.1756325256517712  0.2162854024159843  0.025734680225092236  1.0000
  C   C75       1.0  0.059489807018706986  0.9257979946155218  0.5258648833366946  1.0000
  C   C76       1.0  0.850133719437295  0.8096331447307535  0.02634790918577312  1.0000
  C   C77       1.0  0.37225966889972273  0.6629732509508273  0.5684999068038507  1.0000
  C   C78       1.0  0.1551046565083425  0.12184260608209746  0.06793183204281662  1.0000
  C   C79       1.0  0.19615315694760935  0.9052804112113435  0.5681009862755814  1.0000
  C   C80       1.0  0.91277929414921  0.946240374311948  0.06845293963700522  1.0000
  C   C81       1.0  0.4266712387331636  0.6460018347996269  0.618640684585351  1.0000
  C   C82       1.0  0.22216874408943707  0.1763732679181942  0.11807048966116439  1.0000
  C   C83       1.0  0.1917844355192599  0.9723380423414982  0.6181985086903979  1.0000
  C   C84       1.0  0.8959450642956597  0.941889866768662  0.11865598267927176  1.0000
  C   C85       1.0  0.24639302587467432  0.662703578532458  0.5324334502191306  1.0000
  C   C86       1.0  0.11954863558224808  0.9960357628871889  0.03209778630387204  1.0000
  C   C87       1.0  0.28614743637503876  0.8696775639785415  0.5322894099277774  1.0000
  C   C88       1.0  0.9123310019488925  0.03614441847003759  0.03245996743463999  1.0000
  C   C89       1.0  0.36417513713395516  0.6496593886830624  0.4980745069504522  1.0000
  C   C90       1.0  0.09792587422646906  0.11366861682433434  0.9974744963526092  1.0000
  C   C91       1.0  0.13384897922376374  0.8480925239529141  0.49768267278761147  1.0000
  C   C92       1.0  0.8995457341851747  0.883952883683527  0.9980476604876997  1.0000
  C   C93       1.0  0.41143196757052164  0.6172756959820872  0.4771051704175945  1.0000
  C   C94       1.0  0.10924821585771119  0.16098175157620884  0.9765316470137647  1.0000
  C   C95       1.0  0.06556992661622019  0.8593963514791199  0.47671949314637624  1.0000
  C   C96       1.0  0.8673306604375384  0.8157042947620354  0.9771393296200512  1.0000
  C   C97       1.0  0.4736415815826476  0.6139427518253342  0.5968018701938789  1.0000
  C   C98       1.0  0.23226307649678551  0.22338552957132407  0.09622813321712441  1.0000
  C   C99       1.0  0.12292734416698889  0.9824481281306774  0.5963277065954458  1.0000
  C   C100      1.0  0.864040397886967  0.873043417560389  0.09686932587602126  1.0000
  C   C101      1.0  0.17497584447894346  0.43978931493269613  0.0051701375179860325  1.0000
  C   C102      1.0  0.8157019528253  0.9248287408590484  0.5052351113570237  1.0000
  C   C103      1.0  0.8302434942192746  0.5654305020987138  0.005127707715409505  1.0000
  C   C104      1.0  0.6893739714742041  0.5803755298842505  0.5051770249611777  1.0000
  C   C105      1.0  0.20523412072439837  0.47929967117384115  0.08886643589785591  1.0000
  C   C106      1.0  0.8600564684051476  0.955137249418172  0.5889290121267333  1.0000
  C   C107      1.0  0.8835471469655118  0.6096268717070005  0.08883867968491915  1.0000
  C   C108      1.0  0.7288202495271889  0.6338378372063501  0.5888508832377681  1.0000
  C   C109      1.0  0.9402241791847529  0.5159929235830633  0.2230103191215776  1.0000
  C   C110      1.0  0.9570720145517908  0.6902924031919044  0.7230452721882941  1.0000
  C   C111      1.0  0.282632023008908  0.7067258384592634  0.22283127401765052  1.0000
  C   C112      1.0  0.7662695721914686  0.033046603680567437  0.7231326750705164  1.0000
  C   C113      1.0  0.0074899279862564285  0.5020297795425108  0.2545237921314509  1.0000
  C   C114      1.0  0.00262686752420662  0.7574931902362038  0.7544723677896741  1.0000
  C   C115      1.0  0.246924944265416  0.7523210713876622  0.2542919950097726  1.0000
  C   C116      1.0  0.7521862506474832  0.9972267737444799  0.7545314972734899  1.0000
  C   C117      1.0  0.05750448312460317  0.5448007913837146  0.3457965695229746  1.0000
  C   C118      1.0  0.05120136066519617  0.8075217128253839  0.8457408012351662  1.0000
  C   C119      1.0  0.2882568402549098  0.8009444001770377  0.3455694979503294  1.0000
  C   C120      1.0  0.7949222957733112  0.03838250745862842  0.8458037498416927  1.0000
  C   C121      1.0  0.8862190278203173  0.4751479732285446  0.14025810098533503  1.0000
  C   C122      1.0  0.9151401945910462  0.6362609469699764  0.640297598185512  1.0000
  C   C123      1.0  0.25389285776705606  0.6647928145895888  0.14008584423464748  1.0000
  C   C124      1.0  0.7253712648736083  0.004438176228546841  0.6404160970185443  1.0000
  C   C125      1.0  0.09400279516409425  0.3552004617223973  0.19580346888970715  1.0000
  C   C126      1.0  0.09077771653043243  0.8439050372536485  0.6957005647387362  1.0000
  C   C127      1.0  0.10168724456639916  0.8403985006378464  0.195440350914744  1.0000
  C   C128      1.0  0.6051524109137175  0.8520779850736205  0.6956679628797885  1.0000
  C   C129      1.0  0.021692295339093406  0.44588884635276577  0.2010904080327194  1.0000
  C   C130      1.0  0.005376256308132058  0.7716199998586147  0.7010242032625199  1.0000
  C   C131      1.0  0.17932215006388919  0.7550286803944958  0.2008002547826989  1.0000
  C   C132      1.0  0.6959439406193652  0.9296455050544309  0.7010071092784216  1.0000
  C   C133      1.0  0.9679791331020695  0.4077089785953874  0.11747381893705719  1.0000
  C   C134      1.0  0.9599650216778882  0.7178536975382598  0.6174177422589722  1.0000
  C   C135      1.0  0.1494225461503476  0.7095883810705674  0.11720085832645574  1.0000
  C   C136      1.0  0.6576883968178819  0.8998984049029701  0.6174346548131593  1.0000
  C   C137      1.0  0.09174158819052278  0.4282083181200278  0.22935975232146427  1.0000
  C   C138      1.0  0.05130182106135806  0.8416878727052862  0.7292788299632703  1.0000
  C   C139      1.0  0.13757714505551627  0.8010346214717005  0.2290846798585022  1.0000
  C   C140      1.0  0.6782211789977239  0.8877924284006371  0.7291898949584806  1.0000
  C   C141      1.0  0.9008307313963825  0.42109331648642734  0.08697293086023443  1.0000
  C   C142      1.0  0.9160029189351064  0.6507548233503258  0.5869749513251109  1.0000
  C   C143      1.0  0.18605480012590897  0.6656065270568307  0.08673730053932623  1.0000
  C   C144      1.0  0.6711618174934058  0.9366254943099577  0.5870340519102512  1.0000
  C   C145      1.0  0.16154268049834283  0.3410685639615849  0.22023869670388754  1.0000
  C   C146      1.0  0.12926907644727254  0.9114099554755415  0.7199913708827097  1.0000
  C   C147      1.0  0.05861845823393009  0.8790085496507132  0.21989773900877918  1.0000
  C   C148      1.0  0.5908988231053556  0.808964781969074  0.7200244288292337  1.0000
  C   C149      1.0  0.3679667839903544  0.5934171970495613  0.29191940555343615  1.0000
  C   C150      1.0  0.94802590636926  0.11780274150205382  0.7914021677306381  1.0000
  C   C151      1.0  0.9237108213636134  0.6980109903809506  0.29170104905808353  1.0000
  C   C152      1.0  0.8434585738941889  0.6739536792976467  0.7919484923737413  1.0000
  C   C153      1.0  0.41918098406292614  0.5428996917255164  0.35813985704476187  1.0000
  C   C154      1.0  0.06483364002039589  0.16904302642768698  0.8578177333884796  1.0000
  C   C155      1.0  0.9387342241710429  0.814748423797866  0.3579389220836831  1.0000
  C   C156      1.0  0.7930806059452848  0.6889524308287707  0.8583220012090464  1.0000
  C   C157      1.0  0.18040750527040927  0.45513036591575673  0.12227151236809417  1.0000
  C   C158      1.0  0.9175669554138252  0.9302071963701269  0.6222322649979332  1.0000
  C   C159      1.0  0.9418080719429439  0.6672465865190206  0.12236415997273282  1.0000
  C   C160      1.0  0.7046070120601017  0.692046076922985  0.6221574068739386  1.0000
  C   C161      1.0  0.5847170803483407  0.5734052672299228  0.6403469306958555  1.0000
  C   C162      1.0  0.3161897528923276  0.3345692502295848  0.13968417944370512  1.0000
  C   C163      1.0  0.055319795062501974  0.06645371134537466  0.6399268144495592  1.0000
  C   C164      1.0  0.8239874916042212  0.8054277252301105  0.14065574597051983  1.0000
  C   C165      1.0  0.12224573231880947  0.39064876381362984  0.07145725107121588  1.0000
  C   C166      1.0  0.9310454039478415  0.8719542595445162  0.5713019350709844  1.0000
  C   C167      1.0  0.9493060367346614  0.6808887527223249  0.0716117046745025  1.0000
  C   C168      1.0  0.6401132924198123  0.6993109199382206  0.5712470561162846  1.0000
  C   C169      1.0  0.3673562761885377  0.6309573169524614  0.36054745748081973  1.0000
  C   C170      1.0  0.9790286254599607  0.11695368274841661  0.8598975332200569  1.0000
  C   C171      1.0  0.993047544422616  0.7291300532042868  0.3602543680264175  1.0000
  C   C172      1.0  0.8809842024380786  0.7432415189513935  0.8605219936899928  1.0000
  C   C173      1.0  0.22554317579175626  0.4703388309981519  0.3120321665785538  1.0000
  C   C174      1.0  0.09181693331253618  0.9754502851947464  0.8117758823392548  1.0000
  C   C175      1.0  0.08659307684985158  0.8417541331788599  0.3118787341604872  1.0000
  C   C176      1.0  0.7201658988914302  0.8365545228157318  0.8117203876347219  1.0000
  C   C177      1.0  0.22726885707763228  0.3980410266796922  0.27874094244830866  1.0000
  C   C178      1.0  0.13078382114677822  0.9771327679989168  0.7784023383797631  1.0000
  C   C179      1.0  0.05148188085151852  0.8806541646994928  0.2784825738162622  1.0000
  C   C180      1.0  0.647798260198975  0.8016517753373832  0.7784547367219046  1.0000
  C   C181      1.0  0.15869072198044176  0.48487057834282876  0.28695175150470226  1.0000
  C   C182      1.0  0.05221978500227223  0.90864068011701  0.7867971215697126  1.0000
  C   C183      1.0  0.12832885349990159  0.8020995941132583  0.2867906643531483  1.0000
  C   C184      1.0  0.7348198221321738  0.8783072700019828  0.786683944270713  1.0000
  C   C185      1.0  0.334205246135177  0.7409061401954489  0.6624747066868721  1.0000
  C   C186      1.0  0.17115507142949582  0.0839689437320459  0.1620471612219063  1.0000
  C   C187      1.0  0.32816113480220815  0.9213859453532437  0.6622498360791552  1.0000
  C   C188      1.0  0.9907405935057055  0.07820608127352097  0.1624171234744336  1.0000
  C   C189      1.0  0.5269690792669905  0.3641987125305093  0.04936978626056286  1.0000
  C   C190      1.0  0.9352779912752993  0.2769180424309071  0.5493762743485391  1.0000
  C   C191      1.0  0.522323074156084  0.6851189863691687  0.04926051971165877  1.0000
  C   C192      1.0  0.6144650711354629  0.272551115725257  0.5495322783924123  1.0000
  C   C193      1.0  0.46928747752734523  0.3779088022577427  0.057246395433715264  1.0000
  C   C194      1.0  0.9295783685881958  0.2193417573208622  0.5574225900593391  1.0000
  C   C195      1.0  0.5879474883517304  0.6795019106550769  0.057231634126445385  1.0000
  C   C196      1.0  0.6281727025127566  0.3381606286204785  0.5575374554283954  1.0000
  C   C197      1.0  0.2667337451432203  0.7430240266810203  0.6505150524067105  1.0000
  C   C198      1.0  0.15716606384992823  0.0165667769046749  0.1502291083045719  1.0000
  C   C199      1.0  0.3837658941953991  0.907366805879299  0.650449163292535  1.0000
  C   C200      1.0  0.99291151540028  0.13376617484661343  0.15056561597356238  1.0000
  C   C201      1.0  0.5870997840186051  0.5610695501949364  0.7312457310454974  1.0000
  C   C202      1.0  0.4195902156840106  0.3368440840244987  0.23029334086674416  1.0000
  C   C203      1.0  0.14378291384579703  0.16974896864141437  0.7304831160590763  1.0000
  C   C204      1.0  0.810710464774644  0.8936225801177714  0.2308570056117034  1.0000
  C   C205      1.0  0.5284879547806014  0.5854004671689879  0.7031778722525388  1.0000
  C   C206      1.0  0.36721728174975243  0.2782634110261881  0.20233619801395256  1.0000
  C   C207      1.0  0.17430951978180786  0.11735335760798897  0.7023850291365362  1.0000
  C   C208      1.0  0.8350069646328748  0.9242594357453627  0.20283099206174882  1.0000
  C   C209      1.0  0.11493595621525542  0.37582174190379897  0.9539397935996091  1.0000
  C   C210      1.0  0.8282422751002017  0.8646966618727275  0.4538793318936881  1.0000
  C   C211      1.0  0.8392077170692787  0.5781066772662626  0.9539572657203833  1.0000
  C   C212      1.0  0.6254153720758352  0.5891018758314743  0.4538306473054446  1.0000
  C   C213      1.0  0.07893908387048039  0.3248085025819947  0.8636923727774642  1.0000
  C   C214      1.0  0.7886922661790904  0.8286409025905429  0.363598746053988  1.0000
  C   C215      1.0  0.7850567034055019  0.5387559743495559  0.8636963925874213  1.0000
  C   C216      1.0  0.5745515598318534  0.5348526892323379  0.3635610383353692  1.0000
  C   C217      1.0  0.8220041601390378  0.26989047614001294  0.08976305843635403  1.0000
  C   C218      1.0  0.07001069499579413  0.5718715158153884  0.5895819290903148  1.0000
  C   C219      1.0  0.2675644896131359  0.8197663036572324  0.08946755716485916  1.0000
  C   C220      1.0  0.5196389652878679  0.01777010908628541  0.589595521405677  1.0000
  C   C221      1.0  0.08917051049103687  0.3528060185904138  0.9880818811093375  1.0000
  C   C222      1.0  0.885382100578546  0.8388950334074465  0.48792445776692955  1.0000
  C   C223      1.0  0.8991520372684078  0.635287244472913  0.9881982540184636  1.0000
  C   C224      1.0  0.6023408446559485  0.6489699175096532  0.4878770765767014  1.0000
  C   C225      1.0  0.7482949078174029  0.15862264143878957  0.012899950778240944  1.0000
  C   C226      1.0  0.10506064063007865  0.4984801343351037  0.5132918229391804  1.0000
  C   C227      1.0  0.2646514635714681  0.8543995472218029  0.012853957834458522  1.0000
  C   C228      1.0  0.40837263009772323  0.01475338058329357  0.5128623209095905  1.0000
  C   C229      1.0  0.7154339453080709  0.2033890362830918  0.0467401053127645  1.0000
  C   C230      1.0  0.09404704606895821  0.4656239108559745  0.5470993135021871  1.0000
  C   C231      1.0  0.33130297115634016  0.8433794442170566  0.04671585462458688  1.0000
  C   C232      1.0  0.4532656450263346  0.08139524692620632  0.5466948443475133  1.0000
  N   N1        1.0  0.4953633589021535  0.4214057690718747  0.13845871464993564  1.0000
  N   N2        1.0  0.9672988446243097  0.2455693613790401  0.6386736696187113  1.0000
  N   N3        1.0  0.6430341731184155  0.7172370680745033  0.13846178131921505  1.0000
  N   N4        1.0  0.6716329398375153  0.39321459066651704  0.6387670079586556  1.0000
  N   N5        1.0  0.5891809205590803  0.4012933406739237  0.12788624151311723  1.0000
  N   N6        1.0  0.9766825629627788  0.33920142035893963  0.6278249166703843  1.0000
  N   N7        1.0  0.5385522508454627  0.7264745804347114  0.1277404760992978  1.0000
  N   N8        1.0  0.6514589818365621  0.2887687699639657  0.6280046079955427  1.0000
  N   N9        1.0  0.9574781081068694  0.6044292112902101  0.4281420557365863  1.0000
  N   N10       1.0  0.07345799048817991  0.7072340189043445  0.9278398763315606  1.0000
  N   N11       1.0  0.470641229511095  0.8236951451807073  0.428003782498159  1.0000
  N   N12       1.0  0.8543702249900706  0.22046080399375972  0.9279523864089186  1.0000
  N   N13       1.0  0.8488644206218225  0.5311999042906168  0.31571587306753923  1.0000
  N   N14       1.0  0.03428311741649277  0.5987417464216804  0.8153193568617211  1.0000
  N   N15       1.0  0.4666219638382785  0.7843154814984672  0.31543812533344356  1.0000
  N   N16       1.0  0.781119014912001  0.21674553590418813  0.8156013735450641  1.0000
  N   N17       1.0  0.3996430704882741  0.5388980992919272  0.2910190540602215  1.0000
  N   N18       1.0  0.0017463497996672928  0.1496771337513819  0.7907483030177643  1.0000
  N   N19       1.0  0.8910989964199842  0.751626435712062  0.2908947567010287  1.0000
  N   N20       1.0  0.7890513569455493  0.6413494328676563  0.7912039309381173  1.0000
  N   N21       1.0  0.4010774499782953  0.5989711694570374  0.4032837413765477  1.0000
  N   N22       1.0  0.053777072698508885  0.15068058408203194  0.9027349739242894  1.0000
  N   N23       1.0  0.0020649081943203613  0.8038363404851268  0.4029680450948517  1.0000
  N   N24       1.0  0.8490755397736791  0.7522487090070556  0.9033461563580757  1.0000
  N   N25       1.0  0.3206787312903785  0.6897868364802022  0.5868292163568255  1.0000
  N   N26       1.0  0.14671576649401166  0.0703186242547815  0.0863670304730988  1.0000
  N   N27       1.0  0.2661234016907768  0.8968899253447091  0.5865549598256478  1.0000
  N   N28       1.0  0.9394892262061633  0.01617379973861698  0.08676972078439603  1.0000
  N   N29       1.0  0.5269230325435357  0.593265257380544  0.6449333550555209  1.0000
  N   N30       1.0  0.30102045165174474  0.27675863309853815  0.1442902611084378  1.0000
  N   N31       1.0  0.11767634642134789  0.05121244255762748  0.6443756378357577  1.0000
  N   N32       1.0  0.8434353100393109  0.8677811582392962  0.14500931808651535  1.0000
  N   N33       1.0  0.6212252930920313  0.5539659785446106  0.6914902974945106  1.0000
  N   N34       1.0  0.3868179180303883  0.3710387306157586  0.19067989152927112  1.0000
  N   N35       1.0  0.06994797823655557  0.1370612647593177  0.6909613198346418  1.0000
  N   N36       1.0  0.8042172007165149  0.8198871651829764  0.19151342354890513  1.0000
  N   N37       1.0  0.21303532281296353  0.6941074662844713  0.5695293413203187  1.0000
  N   N38       1.0  0.12523926216700684  0.9627955968564381  0.06930853730832345  1.0000
  N   N39       1.0  0.35661732226297  0.8754036698743165  0.5695167648277745  1.0000
  N   N40       1.0  0.943854782575272  0.10659076591023375  0.06963880109510966  1.0000
  N   N41       1.0  0.7626152670525811  0.2744634950025571  0.09565251218621286  1.0000
  N   N42       1.0  0.07147692471568941  0.5125945275304532  0.595625752238348  1.0000
  N   N43       1.0  0.3328743634295392  0.8210480521490525  0.09543317902356561  1.0000
  N   N44       1.0  0.524325101779496  0.08303263695433567  0.5955017415277267  1.0000
  N   N45       1.0  0.8142511055227075  0.20090007964875423  0.04022025405578241  1.0000
  N   N46       1.0  0.08972463229965656  0.5642252927667072  0.5402529482778319  1.0000
  N   N47       1.0  0.2258976528820753  0.8393655086441713  0.04002714934863873  1.0000
  N   N48       1.0  0.4505861704231792  0.9760745434884798  0.5401189505118182  1.0000
  O   O1        1.0  0.06832968936894451  0.6148329802941676  0.38374399751084093  1.0000
  O   O2        1.0  0.019136796296265864  0.8183733842736486  0.8837374605301562  1.0000
  O   O3        1.0  0.315287969450182  0.7689695497338676  0.3836648207947988  1.0000
  O   O4        1.0  0.8650247110589788  0.06537355594804242  0.8838981757069887  1.0000
  O   O5        1.0  0.08150119162363012  0.5111319625373058  0.37984940634752457  1.0000
  O   O6        1.0  0.11892386998131586  0.8314588477496017  0.8797089631904952  1.0000
  O   O7        1.0  0.29848398365761136  0.8686856873328209  0.37946294932232405  1.0000
  O   O8        1.0  0.7611362695985163  0.048551793607735844  0.8797727737770202  1.0000
  O   O9        1.0  0.018069025345383172  0.24418297161481922  0.06578859076673639  1.0000
  O   O10       1.0  0.07176744766929487  0.7679749196216578  0.5656990863326711  1.0000
  O   O11       1.0  0.04733831436913492  0.8213703645473062  0.06538304654928595  1.0000
  O   O12       1.0  0.49419087312045196  0.7980039333720158  0.5656596745881115  1.0000
  O   O13       1.0  0.9802740158256498  0.28302363372230144  0.1506264021877045  1.0000
  O   O14       1.0  0.11771542752345716  0.7302089021148461  0.650550680496451  1.0000
  O   O15       1.0  0.17001392338436014  0.8671474173706032  0.14996221559901105  1.0000
  O   O16       1.0  0.5330066967403299  0.920621075155417  0.6505176538583087  1.0000
  O   O17       1.0  0.3294645258954461  0.4242619475023306  0.06900617872248198  1.0000
  O   O18       1.0  0.8951068060411984  0.07914943314373366  0.5687677415113371  1.0000
  O   O19       1.0  0.7396572324272057  0.6450211792260351  0.06849180259464316  1.0000
  O   O20       1.0  0.6736881853808327  0.4899772141211828  0.5690779806789479  1.0000
  O   O21       1.0  0.38934424056719047  0.5446506274342866  0.1453969663283558  1.0000
  O   O22       1.0  0.8510989114066376  0.13932868480310384  0.6450696139002331  1.0000
  O   O23       1.0  0.7551987570484895  0.6010936981901409  0.14472238258262138  1.0000
  O   O24       1.0  0.7939640951190937  0.5058668794380881  0.6451618577151592  1.0000
  O   O25       1.0  0.11816541056334263  0.3016630970937086  0.8363456692360954  1.0000
  O   O26       1.0  0.7838014133813829  0.8678337958240404  0.3360869247434052  1.0000
  O   O27       1.0  0.718331430575084  0.5338845566614695  0.8361363705881145  1.0000
  O   O28       1.0  0.5515550957393032  0.4682443829555611  0.3361529438145467  1.0000
  O   O29       1.0  0.008346311061728829  0.30363076858171917  0.8203097588379648  1.0000
  O   O30       1.0  0.7668102716451057  0.7580686499622046  0.3203270874836831  1.0000
  O   O31       1.0  0.8123962288936964  0.5170493721930285  0.8204550443975974  1.0000
  O   O32       1.0  0.5533760769682345  0.5620502919601977  0.32018445224996134  1.0000
