data_image0
_chemical_formula_structural       Co6H204C216N24O36
_chemical_formula_sum              "Co6 H204 C216 N24 O36"
_cell_length_a       11.22625012387657
_cell_length_b       12.86171457994436
_cell_length_c       41.691044206308156
_cell_angle_alpha    94.18386161996855
_cell_angle_beta     89.9991989165998
_cell_angle_gamma    115.87457489887622

_space_group_name_H-M_alt    "P 1"
_space_group_IT_number       1

loop_
  _space_group_symop_operation_xyz
  'x, y, z'

loop_
  _atom_site_type_symbol
  _atom_site_label
  _atom_site_symmetry_multiplicity
  _atom_site_fract_x
  _atom_site_fract_y
  _atom_site_fract_z
  _atom_site_occupancy
  Co  Co1       1.0  0.5573307617358908  0.600193828663585  0.6482925811004704  1.0000
  Co  Co2       1.0  0.9569666386503216  0.3999538145784882  0.851711097432407  1.0000
  Co  Co3       1.0  0.4426651793033401  0.39980135392767124  0.3517067342708912  1.0000
  Co  Co4       1.0  0.043029712701844844  0.6000439703023802  0.1482894755837876  1.0000
  Co  Co5       1.0  0.1809507750008663  0.9998900047772211  0.7500075937410955  1.0000
  Co  Co6       1.0  0.8190460331279257  0.00010691204674629994  0.2499920003724156  1.0000
  H   H1        1.0  0.07827703122214301  0.21983020252321953  0.3332899591188649  1.0000
  H   H2        1.0  0.8588368314231619  0.7805410917887843  0.1666898683442  1.0000
  H   H3        1.0  0.9217197762731432  0.7801667129700718  0.6667084356664219  1.0000
  H   H4        1.0  0.14116965572898013  0.21946449401526283  0.8333092005438304  1.0000
  H   H5        1.0  0.17550376022431644  0.27597278009999837  0.3892859977421708  1.0000
  H   H6        1.0  0.899602071944493  0.724297384391214  0.1106721193143088  1.0000
  H   H7        1.0  0.8244947334660041  0.7240310710116165  0.610712312687177  1.0000
  H   H8        1.0  0.10040886928533871  0.27570820189975365  0.889327429295804  1.0000
  H   H9        1.0  0.02005937137376186  0.9134674973904355  0.4064147624272181  1.0000
  H   H10       1.0  0.10637697629752554  0.08677755743553213  0.0934644257472925  1.0000
  H   H11       1.0  0.9799351026072006  0.08653722208049432  0.5935847667778305  1.0000
  H   H12       1.0  0.8936330508722535  0.9132297639046955  0.9065361212055904  1.0000
  H   H13       1.0  0.9326922436735503  0.8605614194727739  0.3504105171452636  1.0000
  H   H14       1.0  0.07212523872576782  0.13976315240854834  0.1494935416759162  1.0000
  H   H15       1.0  0.06729873903407221  0.1394380989058916  0.6495896150290505  1.0000
  H   H16       1.0  0.9278785529632998  0.860244168729025  0.8505067654242352  1.0000
  H   H17       1.0  0.15655390178991985  0.9899532556822026  0.4493255748387313  1.0000
  H   H18       1.0  0.16633787946074113  0.0102646914495992  0.0505843051897159  1.0000
  H   H19       1.0  0.8434548473438641  0.010049727805018402  0.5506722363989454  1.0000
  H   H20       1.0  0.8336677174333432  0.9897408954280564  0.9494157231627511  1.0000
  H   H21       1.0  0.00449632139211772  0.9992361026117536  0.45283565856763636  1.0000
  H   H22       1.0  0.004847714345629602  0.0006833570738678  0.0470968895791302  1.0000
  H   H23       1.0  0.9955089602703284  0.0007599458075589  0.5471627167609583  1.0000
  H   H24       1.0  0.9951582686792905  0.9993265652706428  0.952903715699577  1.0000
  H   H25       1.0  0.9257469776452472  0.21947868922131877  0.49230052791224926  1.0000
  H   H26       1.0  0.7060818626188093  0.7807971322121928  0.007705621990794492  1.0000
  H   H27       1.0  0.07425122575572368  0.7805138918515199  0.5076982494056848  1.0000
  H   H28       1.0  0.29391973811451083  0.21920758851685215  0.9922951065277275  1.0000
  H   H29       1.0  0.9375306915777915  0.120219466470779  0.462472634997219  1.0000
  H   H30       1.0  0.8173655495728768  0.8800377220302664  0.03749665165247509  1.0000
  H   H31       1.0  0.06247148456204605  0.8797757155247229  0.5375262006299408  1.0000
  H   H32       1.0  0.18263429343272722  0.11996526474126773  0.9625040379913867  1.0000
  H   H33       1.0  0.044467649837038395  0.2685769931310276  0.4618055727528798  1.0000
  H   H34       1.0  0.7757530934142169  0.7316533077222048  0.0381734674570566  1.0000
  H   H35       1.0  0.95552918146025  0.73141818838662  0.5381927831540523  1.0000
  H   H36       1.0  0.2242525270284688  0.2683505446475323  0.9618260422857645  1.0000
  H   H37       1.0  0.13897644261409434  0.39352770065052317  0.5588555221318358  1.0000
  H   H38       1.0  0.7448436237945871  0.6065742873471153  0.9410986429939142  1.0000
  H   H39       1.0  0.8610216891274833  0.606470081816987  0.44114289208984997  1.0000
  H   H40       1.0  0.2551597587218524  0.3934304338960574  0.058902565252218195  1.0000
  H   H41       1.0  0.05003967433319193  0.36359405014145113  0.5213948515724737  1.0000
  H   H42       1.0  0.6860887007755213  0.6366871892053397  0.9785772766525795  1.0000
  H   H43       1.0  0.949960648490837  0.6364063330007285  0.4786033810964909  1.0000
  H   H44       1.0  0.3139133092571313  0.36332013168423327  0.0214227905856035  1.0000
  H   H45       1.0  0.2909762721602648  0.24177641666522484  0.5991998007493748  1.0000
  H   H46       1.0  0.0490982271260663  0.7580719227819516  0.9007899750890543  1.0000
  H   H47       1.0  0.7090209455212603  0.7582231008515452  0.4007996118150885  1.0000
  H   H48       1.0  0.9509033972825592  0.24193106370531584  0.0992104746854707  1.0000
  H   H49       1.0  0.1777996533300552  0.30001789323483763  0.5938567193068635  1.0000
  H   H50       1.0  0.8776605734403234  0.6996913216755799  0.9060756105763516  1.0000
  H   H51       1.0  0.8221989121463553  0.6999807567482395  0.4061421940843672  1.0000
  H   H52       1.0  0.1223423750878894  0.3003125315197721  0.09392461876893779  1.0000
  H   H53       1.0  0.34476618895083533  0.3784207061962946  0.5833049602579408  1.0000
  H   H54       1.0  0.966351614813675  0.6214142739815784  0.9166784101171715  1.0000
  H   H55       1.0  0.6552314620854177  0.6215796780376338  0.4166942318791341  1.0000
  H   H56       1.0  0.03365087681120829  0.37859044700453387  0.0833225582651522  1.0000
  H   H57       1.0  0.44591913223777635  0.11326958546880662  0.5452249719145499  1.0000
  H   H58       1.0  0.33244524000397757  0.8866930859455026  0.9547819111991771  1.0000
  H   H59       1.0  0.5540847302237851  0.8867325324111519  0.45477401922232014  1.0000
  H   H60       1.0  0.6675559026857201  0.1133125001790916  0.0452173975655725  1.0000
  H   H61       1.0  0.45124179706018464  0.22707178724543556  0.5725250580194015  1.0000
  H   H62       1.0  0.22422799151504352  0.7730903564550716  0.9273823879680307  1.0000
  H   H63       1.0  0.5487554688588361  0.7729242636507152  0.427475476116598  1.0000
  H   H64       1.0  0.7757736330202718  0.2269126302983296  0.0726183016721436  1.0000
  H   H65       1.0  0.3384322572110038  0.9824067766033269  0.5154834741414546  1.0000
  H   H66       1.0  0.35578441760062424  0.017671143092577803  0.9844803347930835  1.0000
  H   H67       1.0  0.6615671994103638  0.017591874169077905  0.48451615884487603  1.0000
  H   H68       1.0  0.6442212274042589  0.982330976898318  0.0155205752652634  1.0000
  H   H69       1.0  0.3959111207366848  0.0630590916087286  0.48133854618229316  1.0000
  H   H70       1.0  0.33267240481241345  0.9368305110222012  0.018598723910436404  1.0000
  H   H71       1.0  0.6040914655893844  0.9369386924102514  0.5186613072240503  1.0000
  H   H72       1.0  0.6673279429539108  0.06316814053953831  0.9814016286709872  1.0000
  H   H73       1.0  0.23809464487072765  0.9426070910932437  0.48029807298257055  1.0000
  H   H74       1.0  0.29509759334202107  0.0571415088582441  0.0196913233564828  1.0000
  H   H75       1.0  0.7619074602432152  0.05739329362760512  0.5197015988765727  1.0000
  H   H76       1.0  0.7049089426811153  0.942860611655853  0.9803100664313147  1.0000
  H   H77       1.0  0.21433444512943103  0.9698167106220907  0.6331303447055843  1.0000
  H   H78       1.0  0.2444974852915394  0.03037202271664091  0.8668757193509151  1.0000
  H   H79       1.0  0.7856698981641589  0.03018280575758331  0.3668681083815457  1.0000
  H   H80       1.0  0.7554975168720404  0.9696266267704348  0.13312271431640707  1.0000
  H   H81       1.0  0.28958298544513644  0.8469622436341526  0.663365687153906  1.0000
  H   H82       1.0  0.442640457579529  0.15334077989042072  0.8366697799326062  1.0000
  H   H83       1.0  0.7104226587995373  0.1530398747599335  0.3366337837105675  1.0000
  H   H84       1.0  0.5573536777478838  0.8466561358962114  0.1633288547238507  1.0000
  H   H85       1.0  0.5854505867153321  0.8881243599575301  0.5936798446905698  1.0000
  H   H86       1.0  0.6972859646174713  0.11227626926123692  0.9063920563054918  1.0000
  H   H87       1.0  0.4145467490892827  0.11186648581805508  0.4063176944226329  1.0000
  H   H88       1.0  0.30271077159852655  0.8877258484251341  0.09360669498048678  1.0000
  H   H89       1.0  0.5214970227197143  0.020079173786903905  0.5652530663426276  1.0000
  H   H90       1.0  0.5013366488119644  0.9802885425888163  0.9348073019794114  1.0000
  H   H91       1.0  0.4784994459953397  0.9799099377559629  0.43474419402842557  1.0000
  H   H92       1.0  0.4986596781047013  0.019710974937027  0.0651921105868993  1.0000
  H   H93       1.0  0.9874518317979054  0.47636141926173553  0.5544134584932577  1.0000
  H   H94       1.0  0.5103240873722541  0.5238210940548313  0.9456111805204513  1.0000
  H   H95       1.0  0.012550683375565069  0.5236415672164583  0.44558699127942697  1.0000
  H   H96       1.0  0.4896735411290011  0.47618102681609303  0.0543904491514269  1.0000
  H   H97       1.0  0.8499277276611253  0.5563540851766149  0.5838976267244291  1.0000
  H   H98       1.0  0.29284626961314336  0.44383548760049507  0.9161071964782365  1.0000
  H   H99       1.0  0.15007392092958577  0.44364716813340277  0.4161035037686886  1.0000
  H   H100      1.0  0.7071500588239205  0.5561640331189608  0.083895094475821  1.0000
  H   H101      1.0  0.6276401184055374  0.22961352392727724  0.623183240051489  1.0000
  H   H102      1.0  0.39753708088174017  0.7704618324535629  0.876725213844324  1.0000
  H   H103      1.0  0.37235981930125206  0.7703825258771246  0.376816334616393  1.0000
  H   H104      1.0  0.6024602079523832  0.22953248260399314  0.1232736023538052  1.0000
  H   H105      1.0  0.7592070828089421  0.1450997849431843  0.5922216386528163  1.0000
  H   H106      1.0  0.6135573852346923  0.8549954579659201  0.9077017321066664  1.0000
  H   H107      1.0  0.2407919395707978  0.8548979972491184  0.40777653570138034  1.0000
  H   H108      1.0  0.3864425515851978  0.1450005899755382  0.0922961635017003  1.0000
  H   H109      1.0  0.3948679829585943  0.355075517220051  0.6779591939264121  1.0000
  H   H110      1.0  0.0396228569224277  0.6451489947375322  0.822033565449814  1.0000
  H   H111      1.0  0.6051287773128068  0.6449248670229437  0.3220399982125031  1.0000
  H   H112      1.0  0.960375662090293  0.3548531255920508  0.1779675844889255  1.0000
  H   H113      1.0  0.12221441503525202  0.27066158706762883  0.6840183589637334  1.0000
  H   H114      1.0  0.8511577541802924  0.729248757463232  0.8159363813487204  1.0000
  H   H115      1.0  0.8777850182909219  0.729338798744969  0.3159822723635272  1.0000
  H   H116      1.0  0.1488425459820419  0.2707533620498097  0.1840640489893985  1.0000
  H   H117      1.0  0.26636742779655986  0.5703235044465346  0.6316727113928309  1.0000
  H   H118      1.0  0.6962170744448601  0.4299868047693708  0.8684474051000776  1.0000
  H   H119      1.0  0.7336280091154492  0.4296760146851851  0.36832814036920064  1.0000
  H   H120      1.0  0.30378411673572714  0.5700153152668721  0.1315535049674921  1.0000
  H   H121      1.0  0.9606189906276159  0.32648481328044454  0.6379239914718439  1.0000
  H   H122      1.0  0.6338388892615757  0.6734938658440442  0.8621186858789827  1.0000
  H   H123      1.0  0.0393782518695076  0.6735129723897587  0.3620773011394363  1.0000
  H   H124      1.0  0.3661574619638871  0.3265039187706904  0.13788164727156266  1.0000
  H   H125      1.0  0.029304588666711578  0.4771531640609795  0.6372298979473214  1.0000
  H   H126      1.0  0.5520306687416224  0.5228098446029675  0.8628361212349134  1.0000
  H   H127      1.0  0.9706917390101497  0.5228463550616738  0.3627709538128627  1.0000
  H   H128      1.0  0.44796878825985004  0.4771888069678455  0.1371642313483576  1.0000
  H   H129      1.0  0.8729149770156115  0.19406520960436777  0.6581598540405693  1.0000
  H   H130      1.0  0.6790638778832803  0.8058938378093149  0.8417711664845341  1.0000
  H   H131      1.0  0.12708002654166964  0.8059334428101936  0.3418412181488577  1.0000
  H   H132      1.0  0.3209311494759959  0.19410308062960277  0.1582298668265381  1.0000
  H   H133      1.0  0.7368693955377951  0.13643214687324703  0.6829183260155318  1.0000
  H   H134      1.0  0.600554146894865  0.863523053613662  0.8170468236355647  1.0000
  H   H135      1.0  0.26312871392218534  0.8635673727635407  0.3170830054722629  1.0000
  H   H136      1.0  0.39944309585565924  0.13647473258881607  0.1829549487070139  1.0000
  H   H137      1.0  0.8957040198573482  0.15634864517680572  0.6965940514836361  1.0000
  H   H138      1.0  0.7392354593704199  0.8433069474735574  0.8033017088978479  1.0000
  H   H139      1.0  0.10429495618539167  0.8436526076281513  0.3034065992837185  1.0000
  H   H140      1.0  0.2607613257165724  0.1566917049228707  0.1966993632878911  1.0000
  H   H141      1.0  0.0759908448742692  0.7140778787794633  0.693325346431223  1.0000
  H   H142      1.0  0.3618318841146008  0.2857608565273538  0.8067189619032076  1.0000
  H   H143      1.0  0.9240068069221865  0.28592250705127503  0.3066752848997254  1.0000
  H   H144      1.0  0.6381653582558188  0.7142369288767155  0.1932820908424304  1.0000
  H   H145      1.0  0.0375299213285842  0.6294007075186627  0.6564979833845327  1.0000
  H   H146      1.0  0.40794396817745593  0.37031400311613544  0.8435727929218543  1.0000
  H   H147      1.0  0.9624690786428548  0.37059881157678376  0.3435028683701161  1.0000
  H   H148      1.0  0.5920527691788421  0.629688116965454  0.1564281171549382  1.0000
  H   H149      1.0  0.1738667189452343  0.6431719932925333  0.6807656085226768  1.0000
  H   H150      1.0  0.5305939916108287  0.356794066387522  0.8192729082936836  1.0000
  H   H151      1.0  0.8261313903880423  0.3568275260781136  0.3192354830994688  1.0000
  H   H152      1.0  0.46940368474782457  0.6432045870643748  0.1807291233527906  1.0000
  H   H153      1.0  0.6359404013610191  0.38164312705691134  0.7609236879814887  1.0000
  H   H154      1.0  0.253827876227625  0.6179682399652152  0.7391588242125309  1.0000
  H   H155      1.0  0.36405768404356575  0.6183581260232531  0.2390772026533625  1.0000
  H   H156      1.0  0.7461729047667306  0.38203127804754905  0.2608410680758482  1.0000
  H   H157      1.0  0.7454577376600116  0.5260993108337075  0.7725843611568806  1.0000
  H   H158      1.0  0.21896946780150736  0.47351736497395086  0.7274981325621751  1.0000
  H   H159      1.0  0.2545412383827284  0.47390194197124913  0.2274162896104812  1.0000
  H   H160      1.0  0.781029965144562  0.5264830200402387  0.2725017791681452  1.0000
  H   H161      1.0  0.7664957053564339  0.41118612611433764  0.7889238522611919  1.0000
  H   H162      1.0  0.35476419212663773  0.588479189509208  0.7111155488611018  1.0000
  H   H163      1.0  0.2335045950593013  0.5888159939309716  0.2110770578082182  1.0000
  H   H164      1.0  0.6452361318376916  0.41152119602818266  0.2888848425986694  1.0000
  H   H165      1.0  0.9141710271193378  0.6551720848856775  0.7652871352354537  1.0000
  H   H166      1.0  0.2589388113916656  0.3446981853085874  0.7347625224079906  1.0000
  H   H167      1.0  0.085824818458498  0.34483003307590115  0.2347118559180075  1.0000
  H   H168      1.0  0.7410597310429454  0.6553022002469505  0.26523786905546837  1.0000
  H   H169      1.0  0.02159489036808531  0.7242239365091763  0.7349788615386571  1.0000
  H   H170      1.0  0.29712093479277263  0.275589164388606  0.7650917158281486  1.0000
  H   H171      1.0  0.9784031949098027  0.275777316304854  0.2650217892305449  1.0000
  H   H172      1.0  0.7028803032316165  0.7244094860995322  0.23490767728884515  1.0000
  H   H173      1.0  0.8596935859291225  0.8403257380446336  0.7476243766765832  1.0000
  H   H174      1.0  0.01928636992458621  0.15972524968601937  0.7524212396980161  1.0000
  H   H175      1.0  0.14030541264862254  0.1596737781233273  0.25237383655596796  1.0000
  H   H176      1.0  0.9807126301735567  0.8402742696755611  0.24757985192228196  1.0000
  H   H177      1.0  0.6605353177433743  0.8183652997452313  0.7026532587798187  1.0000
  H   H178      1.0  0.8419792227764304  0.18189862065261053  0.7973357786639494  1.0000
  H   H179      1.0  0.33945532542380624  0.1816264130861924  0.2973442997863884  1.0000
  H   H180      1.0  0.15802153555623025  0.818102633731016  0.20266631129359777  1.0000
  H   H181      1.0  0.7302837799700299  0.5226250146130412  0.6900724752660992  1.0000
  H   H182      1.0  0.20753533316682396  0.47747997112720963  0.8099533756627223  1.0000
  H   H183      1.0  0.26971572463543236  0.47737016900647694  0.3099277995604695  1.0000
  H   H184      1.0  0.7924707926700736  0.5225195473634088  0.1900469963458846  1.0000
  H   H185      1.0  0.7345463155594489  0.14652407691971803  0.7348689069014185  1.0000
  H   H186      1.0  0.588116767803392  0.8531737542822884  0.7650686721035241  1.0000
  H   H187      1.0  0.2654584394407706  0.8534780446770539  0.2651334423526492  1.0000
  H   H188      1.0  0.4118822800254449  0.14682229739412384  0.23493258162572056  1.0000
  H   H189      1.0  0.7207777991608497  0.23595949319840773  0.7676119848851073  1.0000
  H   H190      1.0  0.4847605411018422  0.763664998557559  0.7323503101644633  1.0000
  H   H191      1.0  0.27922784609743445  0.7640426273247626  0.23238940490453064  1.0000
  H   H192      1.0  0.5152415407169073  0.23633712120347647  0.26765036003561693  1.0000
  H   H193      1.0  0.5895021956284695  0.25205292516393746  0.6843076107191023  1.0000
  H   H194      1.0  0.3374571362592251  0.747726986615959  0.8156531653883192  1.0000
  H   H195      1.0  0.41050041589329594  0.7479431278068777  0.3156948423309984  1.0000
  H   H196      1.0  0.6625489185517851  0.25227773460001407  0.18434804285227097  1.0000
  H   H197      1.0  0.3158963577871887  0.14984973327685222  0.6880286503811348  1.0000
  H   H198      1.0  0.16625160219894752  0.8500916403061042  0.8119440008369663  1.0000
  H   H199      1.0  0.6841085154628176  0.850143716844876  0.3119720652873141  1.0000
  H   H200      1.0  0.8337496132904363  0.14990874681902971  0.18805782981483787  1.0000
  H   H201      1.0  0.48304735857482956  0.11296121698764237  0.7747565062573969  1.0000
  H   H202      1.0  0.3702458724700363  0.8868731980499263  0.7252056275711141  1.0000
  H   H203      1.0  0.5169529900784015  0.8870374364370478  0.22524552538354922  1.0000
  H   H204      1.0  0.6297522368632473  0.11312632132072761  0.2747954640510315  1.0000
  C   C1        1.0  0.9451263889424483  0.00046604969342209997  0.30447555150438876  1.0000
  C   C2        1.0  0.9451714451450928  3.906620196399992e-05  0.19547014188481165  1.0000
  C   C3        1.0  0.054870852160973996  0.9995317330492954  0.6955231025847937  1.0000
  C   C4        1.0  0.05482707361422707  0.9999630535953518  0.804530528322644  1.0000
  C   C5        1.0  0.0010677360070516975  0.0360782712864065  0.3378774966132312  1.0000
  C   C6        1.0  0.9652899856487951  0.9642874757191039  0.1620592177275526  1.0000
  C   C7        1.0  0.9989285905295164  0.9639212454410283  0.6621211963561393  1.0000
  C   C8        1.0  0.034713853390869104  0.0357163769349071  0.8379405318846054  1.0000
  C   C9        1.0  0.0674131095120387  0.15350268563024372  0.3493535904040783  1.0000
  C   C10       1.0  0.914241397019353  0.8468551410677208  0.1506174579719968  1.0000
  C   C11       1.0  0.9325845415242143  0.8464976986036844  0.6506456017329966  1.0000
  C   C12       1.0  0.08576422329662851  0.1531487110358825  0.8493818119051824  1.0000
  C   C13       1.0  0.11982766390871552  0.1851325121004805  0.3805797885499088  1.0000
  C   C14       1.0  0.9348001112200709  0.815156930622351  0.1193752005741331  1.0000
  C   C15       1.0  0.8801691201646806  0.8148661381668705  0.6194193647106658  1.0000
  C   C16       1.0  0.06520907240874148  0.18484692197724684  0.8806245490269545  1.0000
  C   C17       1.0  0.1029468497705892  0.09890908498985598  0.40136271329055256  1.0000
  C   C18       1.0  0.004054624037941193  0.9013180224450253  0.09857151585752888  1.0000
  C   C19       1.0  0.8970516681018239  0.901093032944516  0.5986362778573806  1.0000
  C   C20       1.0  0.9959558364865662  0.09869016561235362  0.9014288106679658  1.0000
  C   C21       1.0  0.03531361639880961  0.9812785194106584  0.3905050348591033  1.0000
  C   C22       1.0  0.053952160231311615  0.018988605054794005  0.1093895879097886  1.0000
  C   C23       1.0  0.9646777994101402  0.018721865152890902  0.6094943971565243  1.0000
  C   C24       1.0  0.9460520881076846  0.9810178477597447  0.8906095004220304  1.0000
  C   C25       1.0  0.9864979931509198  0.9515019795480059  0.3588508153584797  1.0000
  C   C26       1.0  0.0350159621957005  0.048824156848425594  0.1410537275094654  1.0000
  C   C27       1.0  0.013497852553626897  0.048500138679706595  0.6411484156606304  1.0000
  C   C28       1.0  0.9649883100719948  0.9511805622566031  0.8589455618096551  1.0000
  C   C29       1.0  0.11302047920673172  0.050203409324410614  0.4550236500024951  1.0000
  C   C30       1.0  0.06259966860348952  0.9498652082503086  0.0449073789063164  1.0000
  C   C31       1.0  0.8869855980125723  0.9497995749884256  0.5449748808376498  1.0000
  C   C32       1.0  0.9374036892240555  0.05014124510557849  0.9550921891586412  1.0000
  C   C33       1.0  0.15436746828646625  0.11200128421853608  0.4879164216656235  1.0000
  C   C34       1.0  0.042119897177350714  0.8879587655342009  0.0120284450168313  1.0000
  C   C35       1.0  0.8456368750071238  0.8879982321611454  0.5120820314215138  1.0000
  C   C36       1.0  0.9578856276772358  0.11205202193972502  0.9879705006424471  1.0000
  C   C37       1.0  0.09699535921166814  0.18551806104068902  0.498914852619265  1.0000
  C   C38       1.0  0.9112061657839093  0.8145143534271712  0.0010294220041658032  1.0000
  C   C39       1.0  0.903006769197475  0.8144805886399668  0.5010838208989554  1.0000
  C   C40       1.0  0.08879716849503443  0.18549383443662754  0.9989706646704306  1.0000
  C   C41       1.0  0.1351731076402132  0.2458248677953279  0.529536787077113  1.0000
  C   C42       1.0  0.8890102004139852  0.7542045840186733  0.9704027805977374  1.0000
  C   C43       1.0  0.8648281063287729  0.7541755161361866  0.47046216518693734  1.0000
  C   C44       1.0  0.11099094290921133  0.24580100343658984  0.02959772749523639  1.0000
  C   C45       1.0  0.22731834604242357  0.23150123084045765  0.5494756876731302  1.0000
  C   C46       1.0  0.9955180982960886  0.7683571536462284  0.950475749140395  1.0000
  C   C47       1.0  0.7726779811276432  0.7684982872176536  0.45052420462447873  1.0000
  C   C48       1.0  0.004487017512566601  0.23165103419943023  0.0495243375305137  1.0000
  C   C49       1.0  0.28538465224657733  0.15930158508703582  0.5378910676771084  1.0000
  C   C50       1.0  0.12581737891633069  0.8405156579383188  0.9620729345251107  1.0000
  C   C51       1.0  0.7146129990430766  0.8406987996791602  0.46210860419125765  1.0000
  C   C52       1.0  0.8741833306720326  0.1594890620013913  0.0379270743983184  1.0000
  C   C53       1.0  0.24810244847386542  0.09777326045427513  0.5073110627749102  1.0000
  C   C54       1.0  0.15008017032317175  0.9021082652967112  0.9926481683686673  1.0000
  C   C55       1.0  0.7518996325846814  0.9022288577099573  0.4926881682312895  1.0000
  C   C56       1.0  0.8499227545297361  0.09789732214041891  0.007352339720618799  1.0000
  C   C57       1.0  0.995837956403378  0.1992158322793571  0.4779850644035548  1.0000
  C   C58       1.0  0.7965004699672278  0.800992422633911  0.021982096683309704  1.0000
  C   C59       1.0  0.004162414404746121  0.8007810837099285  0.5220138101056406  1.0000
  C   C60       1.0  0.20350113076609236  0.19901229809513413  0.9780186318352121  1.0000
  C   C61       1.0  0.07353178596951444  0.323507509524049  0.5413609223614485  1.0000
  C   C62       1.0  0.7495711773102799  0.6766523106581631  0.9585881750642429  1.0000
  C   C63       1.0  0.9264680796977842  0.676493740876623  0.4586375696132521  1.0000
  C   C64       1.0  0.25043220495275886  0.32335241005274185  0.0414125534505914  1.0000
  C   C65       1.0  0.2621833853723743  0.2909495986781039  0.5830643939000169  1.0000
  C   C66       1.0  0.9710712246384718  0.708828069309192  0.9169027236984206  1.0000
  C   C67       1.0  0.7378138319290531  0.7090499180402647  0.41693429906751334  1.0000
  C   C68       1.0  0.0289308094495766  0.2911775181370047  0.083097784392713  1.0000
  C   C69       1.0  0.3841946485058614  0.1448996756359051  0.5592325794318995  1.0000
  C   C70       1.0  0.2391627870168662  0.855099224190802  0.9407490169015773  1.0000
  C   C71       1.0  0.6158052650188353  0.8550981073457322  0.44076631451739695  1.0000
  C   C72       1.0  0.7608361650971747  0.14490376232366492  0.059251432878483  1.0000
  C   C73       1.0  0.30799191980786844  0.0174794143781511  0.4955588673089719  1.0000
  C   C74       1.0  0.2902715357366787  0.9824002655373009  0.004397609097814798  1.0000
  C   C75       1.0  0.6920097754999407  0.9825183691176281  0.5044405063679278  1.0000
  C   C76       1.0  0.7097341333235931  0.017600121010218604  0.9956037418134754  1.0000
  C   C77       1.0  0.3620559190087675  0.0020948253963837  0.5973873295272014  1.0000
  C   C78       1.0  0.35989812625587797  0.9982247986047098  0.902669396472696  1.0000
  C   C79       1.0  0.6379462563708672  0.997900355002301  0.40261006690608525  1.0000
  C   C80       1.0  0.6400968761611028  0.0017738514146401  0.0973295169259103  1.0000
  C   C81       1.0  0.29724798820892323  0.9531100980501749  0.6251379014314934  1.0000
  C   C82       1.0  0.34409355882352344  0.04718172039842021  0.8749041978766599  1.0000
  C   C83       1.0  0.7027603282036312  0.04689202005057071  0.3748613295618027  1.0000
  C   C84       1.0  0.6559019010035813  0.9528160628947051  0.1250949359475015  1.0000
  C   C85       1.0  0.3386354046293223  0.8841755464902551  0.6416200637990171  1.0000
  C   C86       1.0  0.45442047186178075  0.11613640572071661  0.8584255655480318  1.0000
  C   C87       1.0  0.6613675908693751  0.11582483742311923  0.3583788884613455  1.0000
  C   C88       1.0  0.5455750113872286  0.8838596427983563  0.1415728098008415  1.0000
  C   C89       1.0  0.44215768460916394  0.8593659349255988  0.6303905687270728  1.0000
  C   C90       1.0  0.5827376977623474  0.14099915922988526  0.8696694971439881  1.0000
  C   C91       1.0  0.5578479826773092  0.14063444789603352  0.3696074240651797  1.0000
  C   C92       1.0  0.41725995314720177  0.8590012247379023  0.1303294551274377  1.0000
  C   C93       1.0  0.5058572521712321  0.9082469291763929  0.6025833444852751  1.0000
  C   C94       1.0  0.5975891103934076  0.09216679390276283  0.8974870215716989  1.0000
  C   C95       1.0  0.49414229940472865  0.09174478516115415  0.39741565325636685  1.0000
  C   C96       1.0  0.40240586834827513  0.9078335903583723  0.10251217057091108  1.0000
  C   C97       1.0  0.46848740164229236  0.981229635093669  0.5863989392443827  1.0000
  C   C98       1.0  0.4872328486721146  0.0191769101830062  0.9136607442700324  1.0000
  C   C99       1.0  0.5315090433974633  0.018761210690982504  0.41359859987066727  1.0000
  C   C100      1.0  0.5127634779911504  0.9808226068105628  0.08633818856498719  1.0000
  C   C101      1.0  0.4779026361729567  0.7783284932295378  0.6475636937749271  1.0000
  C   C102      1.0  0.6995175803208655  0.2219656826142824  0.8524887444519463  1.0000
  C   C103      1.0  0.5220968677990073  0.22166668905929754  0.35243538172341  1.0000
  C   C104      1.0  0.3004765312045522  0.7780329671480007  0.1475099290828581  1.0000
  C   C105      1.0  0.8822563038535592  0.30515061198778437  0.5716599569915104  1.0000
  C   C106      1.0  0.5765139524554997  0.694994961566792  0.9283130753661623  1.0000
  C   C107      1.0  0.11774442953679908  0.6948523739762749  0.4283400130535711  1.0000
  C   C108      1.0  0.4234850471358414  0.30500455673024623  0.0716870567915535  1.0000
  C   C109      1.0  0.9081307425855061  0.42123866370792484  0.5691496868199906  1.0000
  C   C110      1.0  0.48621946806952826  0.5789362103891024  0.9308548231861451  1.0000
  C   C111      1.0  0.09187131555794537  0.5787651902949024  0.43085126212407937  1.0000
  C   C112      1.0  0.5137782077823233  0.42106244199825954  0.06914624899774678  1.0000
  C   C113      1.0  0.8310683977465488  0.46647897214234757  0.5858869854944686  1.0000
  C   C114      1.0  0.3639224497139821  0.5336944632182823  0.914117379711101  1.0000
  C   C115      1.0  0.16893060235159404  0.5335205472192259  0.4141141061258295  1.0000
  C   C116      1.0  0.6360752022091701  0.4663059228785897  0.0858834914854967  1.0000
  C   C117      1.0  0.7309497395563371  0.39894980668654534  0.6057898967278632  1.0000
  C   C118      1.0  0.33141645664839114  0.6011920028331661  0.8941864197826915  1.0000
  C   C119      1.0  0.26904974137383414  0.6010471111747576  0.39421065684270207  1.0000
  C   C120      1.0  0.6685825664915442  0.3988057809559536  0.1058131937653854  1.0000
  C   C121      1.0  0.7056846243207034  0.2825785303279602  0.6077706815013498  1.0000
  C   C122      1.0  0.4225851929884287  0.7175330853790742  0.8921640604933572  1.0000
  C   C123      1.0  0.29431661408378307  0.7174201209585788  0.39222943121257703  1.0000
  C   C124      1.0  0.5774187174572276  0.2824655653479908  0.10783557248375078  1.0000
  C   C125      1.0  0.7787389429244129  0.23534726797989688  0.5906363962017167  1.0000
  C   C126      1.0  0.5428145584894467  0.7647823394518979  0.9093154232440455  1.0000
  C   C127      1.0  0.22125914159327223  0.7646539832373167  0.4093628153736049  1.0000
  C   C128      1.0  0.45718937537810694  0.23521457650110736  0.0906834512577745  1.0000
  C   C129      1.0  0.6545569915823395  0.44820367230038033  0.625993209051252  1.0000
  C   C130      1.0  0.2057061951314695  0.5517833324016908  0.8740361359011857  1.0000
  C   C131      1.0  0.345442055486295  0.5517923777792292  0.3740066054841265  1.0000
  C   C132      1.0  0.7942932614898981  0.4482153183707211  0.1259634970851451  1.0000
  C   C133      1.0  0.3265521802803806  0.386366652169322  0.6692718461277279  1.0000
  C   C134      1.0  0.9400007359560832  0.6137878417302147  0.8307264458075351  1.0000
  C   C135      1.0  0.6734467952555577  0.6136345995710997  0.3307278451770443  1.0000
  C   C136      1.0  0.05999780635183077  0.3862125435591822  0.1692737057902818  1.0000
  C   C137      1.0  0.1917632258916556  0.3438913724987885  0.6719351405654378  1.0000
  C   C138      1.0  0.8475593419587498  0.6560876835367538  0.8280426062653701  1.0000
  C   C139      1.0  0.8082362075612154  0.6561090135799433  0.32806573062747185  1.0000
  C   C140      1.0  0.15244006769211893  0.34391443651762194  0.1719583038058872  1.0000
  C   C141      1.0  0.2658900412719305  0.5005256455941735  0.6448173754405033  1.0000
  C   C142      1.0  0.7653948195208572  0.49974144210781896  0.8552659063384382  1.0000
  C   C143      1.0  0.7341045285505248  0.4994721393048352  0.35518319757937883  1.0000
  C   C144      1.0  0.2346055043167753  0.5002589431634378  0.1447342452556839  1.0000
  C   C145      1.0  0.020891238720920913  0.4078255394219353  0.6521696759698159  1.0000
  C   C146      1.0  0.6128076002134507  0.592138655714308  0.8478833209496982  1.0000
  C   C147      1.0  0.9791104331649978  0.5921739788478959  0.347830456182372  1.0000
  C   C148      1.0  0.3871905089931289  0.40786086339020505  0.1521175308067981  1.0000
  C   C149      1.0  0.9576853695368968  0.41639218506784914  0.6835624136670972  1.0000
  C   C150      1.0  0.5409406016948636  0.5834808515579084  0.8164972602984832  1.0000
  C   C151      1.0  0.04231495468083319  0.5836082010018161  0.3164384575239652  1.0000
  C   C152      1.0  0.459057073776883  0.41651780003104494  0.1835030922884755  1.0000
  C   C153      1.0  0.9816372583565286  0.5273264774601074  0.6977629884365371  1.0000
  C   C154      1.0  0.45403841040344156  0.4725116692906822  0.8023101709083775  1.0000
  C   C155      1.0  0.018359960211888866  0.472673041919606  0.3022381031874488  1.0000
  C   C156      1.0  0.5459592413930068  0.5274887165400486  0.1976904604225709  1.0000
  C   C157      1.0  0.915677760339243  0.5363591792563298  0.725872350675452  1.0000
  C   C158      1.0  0.37916621627451974  0.4634786455520866  0.7741813923392937  1.0000
  C   C159      1.0  0.08432078234876882  0.46364120683146853  0.274128520519298  1.0000
  C   C160      1.0  0.6208327833168213  0.5365208727449514  0.2258187398184219  1.0000
  C   C161      1.0  0.8257364485850476  0.4357160897046199  0.7394800283206066  1.0000
  C   C162      1.0  0.38978733237002666  0.5640757059262427  0.7605553189860358  1.0000
  C   C163      1.0  0.1742642855655135  0.5642868978562562  0.2605213809183482  1.0000
  C   C164      1.0  0.6102103431017271  0.43592294566271067  0.2394450336009157  1.0000
  C   C165      1.0  0.8085694230342357  0.32669320972131294  0.7258996400022042  1.0000
  C   C166      1.0  0.48174741096701723  0.6730977860919367  0.7741010118247685  1.0000
  C   C167      1.0  0.19143087776159007  0.6733089111224047  0.2741019896641461  1.0000
  C   C168      1.0  0.5182507219148605  0.32689999877079157  0.22589956118773807  1.0000
  C   C169      1.0  0.8717487267452884  0.31510194666951463  0.6976348135379737  1.0000
  C   C170      1.0  0.5563890658184506  0.6847180102045485  0.802383983418366  1.0000
  C   C171      1.0  0.1282489018826709  0.6849001744675435  0.3023670559995466  1.0000
  C   C172      1.0  0.44360685192557986  0.3152789074268938  0.19761633029393266  1.0000
  C   C173      1.0  0.8430933708895483  0.19522370212809648  0.6830941124288898  1.0000
  C   C174      1.0  0.647848365235845  0.8046163434473711  0.8168533012305089  1.0000
  C   C175      1.0  0.1569038476788762  0.804775817251624  0.316906979195096  1.0000
  C   C176      1.0  0.35214709573156  0.19538144224097218  0.18314799138446597  1.0000
  C   C177      1.0  0.07162494781321978  0.6336242518687244  0.6815315490977909  1.0000
  C   C178      1.0  0.4378206573162657  0.3662120479235754  0.8185375181213388  1.0000
  C   C179      1.0  0.9283727279119349  0.3663744002525036  0.3184692832204519  1.0000
  C   C180      1.0  0.5621743699163062  0.6337848702492013  0.18146327532409148  1.0000
  C   C181      1.0  0.7403649175980436  0.4400570863397847  0.766914324728937  1.0000
  C   C182      1.0  0.2998887599064162  0.5596142719305348  0.7331397526553545  1.0000
  C   C183      1.0  0.2596336014146703  0.5599450339898058  0.23308682520980992  1.0000
  C   C184      1.0  0.70011067316635  0.4403861133497884  0.2668603989406151  1.0000
  C   C185      1.0  0.9259775717797114  0.6522031660468032  0.7392250336606024  1.0000
  C   C186      1.0  0.2736214726598689  0.34766077112662697  0.7608294702529149  1.0000
  C   C187      1.0  0.0740209705281956  0.3477972192425939  0.26077511793720726  1.0000
  C   C188      1.0  0.7263784414983265  0.6523370131856936  0.23917062302460576  1.0000
  C   C189      1.0  0.8014289292090598  0.7726383846120586  0.7292626872136552  1.0000
  C   C190      1.0  0.028658988423252728  0.22745816616864548  0.7707677303426265  1.0000
  C   C191      1.0  0.1985678541041338  0.22736026405847556  0.27073502685303896  1.0000
  C   C192      1.0  0.9713418173867014  0.772539619997552  0.22923404199256942  1.0000
  C   C193      1.0  0.7043264309254978  0.7605354984666517  0.7072393467123774  1.0000
  C   C194      1.0  0.9436206165759631  0.23966280729632672  0.7927688194904049  1.0000
  C   C195      1.0  0.29567172512488343  0.23946055108975633  0.2927599880935502  1.0000
  C   C196      1.0  0.056383247025898774  0.7603393129788433  0.2072323304372787  1.0000
  C   C197      1.0  0.7380991923645013  0.6060635740185419  0.6995250016839165  1.0000
  C   C198      1.0  0.13191431906344775  0.3940516296239738  0.8004928081401133  1.0000
  C   C199      1.0  0.26189942122270793  0.3939316090777752  0.3004747934132013  1.0000
  C   C200      1.0  0.8680904829072631  0.6059470226908275  0.1995082640290278  1.0000
  C   C201      1.0  0.713708171413444  0.22098474638064397  0.7413037561396365  1.0000
  C   C202      1.0  0.49275528302543165  0.778765447044272  0.7586594367464556  1.0000
  C   C203      1.0  0.2862930676245342  0.7790139062365713  0.258697555902522  1.0000
  C   C204      1.0  0.5072468228487069  0.22123493927338697  0.24134167430656817  1.0000
  C   C205      1.0  0.5263060883703761  0.20471286637936006  0.7030462295625739  1.0000
  C   C206      1.0  0.3216961398234305  0.7951111936187092  0.7969111245015909  1.0000
  C   C207      1.0  0.47369741378954455  0.7952831863162547  0.2969559836200304  1.0000
  C   C208      1.0  0.6783063994054431  0.20489005941610827  0.20308976612403737  1.0000
  C   C209      1.0  0.3908991570974934  0.15601673001482652  0.7053661635800665  1.0000
  C   C210      1.0  0.23504922442440088  0.843872888344471  0.7945997854465645  1.0000
  C   C211      1.0  0.6091039350028992  0.843976720923436  0.2946352716890033  1.0000
  C   C212      1.0  0.7649550492369956  0.15613183368804331  0.20540214239466079  1.0000
  C   C213      1.0  0.47130955321967605  0.13354223492254394  0.7505239511658672  1.0000
  C   C214      1.0  0.33796402005462056  0.8663784643351916  0.7494440361124788  1.0000
  C   C215      1.0  0.5286930339932924  0.8664555509593795  0.249477581299999  1.0000
  C   C216      1.0  0.6620389762042793  0.1336219211749992  0.2505563553417645  1.0000
  N   N1        1.0  0.371698349464218  0.4845453886762172  0.6525167255573692  1.0000
  N   N2        1.0  0.8871472142909342  0.5157418953551698  0.8475409249493566  1.0000
  N   N3        1.0  0.6283001687883002  0.5154567300565561  0.3474829851875043  1.0000
  N   N4        1.0  0.11285397676295619  0.484260224414939  0.152459745252564  1.0000
  N   N5        1.0  0.1550195611154734  0.4170219214307025  0.6561699657138576  1.0000
  N   N6        1.0  0.7378045811240456  0.5830341070473395  0.8438575088481457  1.0000
  N   N7        1.0  0.8449780908076863  0.5829784646661694  0.3438309054827329  1.0000
  N   N8        1.0  0.262192661119677  0.41696367809058904  0.15614330403184337  1.0000
  N   N9        1.0  0.6651660966152023  0.6560496230102474  0.688922755548937  1.0000
  N   N10       1.0  0.008935166607265878  0.34413864192683974  0.8110733071379953  1.0000
  N   N11       1.0  0.33483119272571576  0.3439446931118511  0.3110770201117744  1.0000
  N   N12       1.0  0.9910682874418626  0.6558608776555277  0.18892802433872896  1.0000
  N   N13       1.0  0.8221949316604836  0.6745522755958789  0.7238380198591798  1.0000
  N   N14       1.0  0.14754093116417272  0.3254735044776851  0.7761996683790001  1.0000
  N   N15       1.0  0.1778036102673255  0.3254481088951096  0.2761614121416969  1.0000
  N   N16       1.0  0.852461222060562  0.6745234133564111  0.22380088518603003  1.0000
  N   N17       1.0  0.5751203502479713  0.18916319237600732  0.7318318089322772  1.0000
  N   N18       1.0  0.3860899640803553  0.810700470885209  0.7681329406616584  1.0000
  N   N19       1.0  0.4248831277298565  0.810834593496843  0.2681697235317486  1.0000
  N   N20       1.0  0.6139143330029385  0.18930251637324608  0.23186822870427898  1.0000
  N   N21       1.0  0.3575223109239262  0.11163618339651293  0.7350381667608801  1.0000
  N   N22       1.0  0.24609692200287717  0.8883117632542364  0.7649406444626408  1.0000
  N   N23       1.0  0.6424811908559038  0.8883598685006933  0.26496332682479107  1.0000
  N   N24       1.0  0.7539016918377257  0.11168342037434797  0.23505963036577532  1.0000
  O   O1        1.0  0.9224076678831282  0.07581070232440372  0.28950523833186276  1.0000
  O   O2        1.0  0.8472345916883273  0.9247497995695539  0.21048689249331423  1.0000
  O   O3        1.0  0.07759354621256163  0.9241896818732444  0.7104939537978296  1.0000
  O   O4        1.0  0.15276440752291623  0.0752497179290827  0.7895125200674684  1.0000
  O   O5        1.0  0.9183290648071822  0.9005699396733464  0.291464762828241  1.0000
  O   O6        1.0  0.01833186401835719  0.09999113321573821  0.20843249138241757  1.0000
  O   O7        1.0  0.0816659614117938  0.09942697637035282  0.7085341116920247  1.0000
  O   O8        1.0  0.9816688935541011  0.9000101195710858  0.7915681593812494  1.0000
  O   O9        1.0  0.15429947062107632  0.1368115412264288  0.4319147517239017  1.0000
  O   O10       1.0  0.01751650478818325  0.8633342924213707  0.06803192735160479  1.0000
  O   O11       1.0  0.8456990469979435  0.8631905761756685  0.5680837596927404  1.0000
  O   O12       1.0  0.982487286140689  0.13667302711939303  0.9319669405546661  1.0000
  O   O13       1.0  0.30903329884333175  0.0640528415486656  0.5823080920922763  1.0000
  O   O14       1.0  0.24490191591196706  0.9361774506189703  0.9177390250408805  1.0000
  O   O15       1.0  0.6909670952599924  0.9359423394004268  0.4176897840759962  1.0000
  O   O16       1.0  0.7550966019604464  0.06382466731539439  0.0822599661070527  1.0000
  O   O17       1.0  0.5392831637555703  0.7290817539598323  0.6305200005729645  1.0000
  O   O18       1.0  0.8101743221461748  0.27109188261835027  0.8695200636014421  1.0000
  O   O19       1.0  0.4607167736978256  0.27091429531230204  0.36947909436362636  1.0000
  O   O20       1.0  0.18982159496435708  0.7289050336824163  0.13047905078261826  1.0000
  O   O21       1.0  0.44437795228827787  0.7583448861037424  0.67613343763621  1.0000
  O   O22       1.0  0.6860003534629442  0.24199485258289144  0.8239205885376819  1.0000
  O   O23       1.0  0.5556215038262877  0.24165376360412696  0.3238652358875385  1.0000
  O   O24       1.0  0.3139986694235973  0.7580029306739604  0.17607854527910394  1.0000
  O   O25       1.0  0.9523179196872676  0.25203014287787795  0.5569272702425891  1.0000
  O   O26       1.0  0.6997784668783638  0.7481221093457435  0.9430249278629147  1.0000
  O   O27       1.0  0.047680621607049944  0.7479702402824415  0.4430709624300632  1.0000
  O   O28       1.0  0.3002218563257628  0.2518782745948371  0.056974024402983  1.0000
  O   O29       1.0  0.5960889395634086  0.397581930487796  0.6500500447063828  1.0000
  O   O30       1.0  0.19757044352692088  0.602306916530907  0.8499779416542593  1.0000
  O   O31       1.0  0.40390656850119205  0.6024123861847102  0.3499502106893075  1.0000
  O   O32       1.0  0.8024378963075309  0.3976934667957864  0.15002053086374895  1.0000
  O   O33       1.0  0.6550870429552874  0.5438936917295153  0.6177328877562829  1.0000
  O   O34       1.0  0.11078465275193855  0.45601626267671963  0.8823107342020435  1.0000
  O   O35       1.0  0.3449106561917575  0.4561032256176533  0.382267186086672  1.0000
  O   O36       1.0  0.8892161040603173  0.5439849885132872  0.11768847736774998  1.0000
