data_image0
_chemical_formula_structural       Co12H160C212N16O48
_chemical_formula_sum              "Co12 H160 C212 N16 O48"
_cell_length_a       13.922486998274026
_cell_length_b       19.040336889502836
_cell_length_c       26.181968129842964
_cell_angle_alpha    89.9672522679545
_cell_angle_beta     89.93041640394394
_cell_angle_gamma    89.9701776522792

_space_group_name_H-M_alt    "P 1"
_space_group_IT_number       1

loop_
  _space_group_symop_operation_xyz
  'x, y, z'

loop_
  _atom_site_type_symbol
  _atom_site_label
  _atom_site_symmetry_multiplicity
  _atom_site_fract_x
  _atom_site_fract_y
  _atom_site_fract_z
  _atom_site_occupancy
  Co  Co1       1.0  0.9777528461169991  0.9359309252045734  0.8585554892432514  1.0000
  Co  Co2       1.0  0.5219204428835837  0.43583074056240884  0.6409798205458446  1.0000
  Co  Co3       1.0  0.019954546845355  0.5640046863024467  0.8592728619509986  1.0000
  Co  Co4       1.0  0.4789454338829913  0.06394816393501658  0.6415208664195049  1.0000
  Co  Co5       1.0  0.0222370243472767  0.06335279824926231  0.1411519712275648  1.0000
  Co  Co6       1.0  0.46735936448502  0.5701617755030454  0.364228909617232  1.0000
  Co  Co7       1.0  0.9783663232884549  0.43539975447712476  0.141444586717455  1.0000
  Co  Co8       1.0  0.5223047529572893  0.936118657157188  0.3575168600547587  1.0000
  Co  Co9       1.0  0.9978868684051889  0.7497024337678297  0.8585985324882446  1.0000
  Co  Co10      1.0  0.5002852101813035  0.24976482616652632  0.641714286240834  1.0000
  Co  Co11      1.0  0.0005264604109313999  0.2504244079811571  0.14143544068288352  1.0000
  Co  Co12      1.0  0.5027544404127084  0.7491509252522662  0.3587061149150728  1.0000
  H   H1        1.0  0.38087460184137  0.9659483915323507  0.22083285735111963  1.0000
  H   H2        1.0  0.1106594568392367  0.4683667749421119  0.2820091950020327  1.0000
  H   H3        1.0  0.6098221539066843  0.528380184292743  0.21943464217296346  1.0000
  H   H4        1.0  0.8847521413629876  0.0304582428593179  0.28107296951237265  1.0000
  H   H5        1.0  0.6164923350690755  0.030524171932064807  0.7808739784117762  1.0000
  H   H6        1.0  0.8805186330132456  0.5292359332458859  0.7202333618806877  1.0000
  H   H7        1.0  0.38357569706830213  0.46956280245196064  0.7805219647681911  1.0000
  H   H8        1.0  0.1155208539858137  0.9687645405918416  0.7185400723499672  1.0000
  H   H9        1.0  0.3047615126413844  0.9692639614369368  0.1355705841071497  1.0000
  H   H10       1.0  0.1858967430754532  0.4705626821083301  0.36764566878770216  1.0000
  H   H11       1.0  0.6893340058872752  0.5268042751972432  0.13471315944010342  1.0000
  H   H12       1.0  0.8063817122154476  0.02896404247832151  0.3660357293549623  1.0000
  H   H13       1.0  0.6935855538207677  0.028355492970192096  0.8660390639337551  1.0000
  H   H14       1.0  0.805310996501113  0.5261613207105355  0.6346959849328756  1.0000
  H   H15       1.0  0.30627757558005436  0.4713838852028046  0.8657571567269075  1.0000
  H   H16       1.0  0.19399868658270236  0.9707302935050209  0.6337242271743478  1.0000
  H   H17       1.0  0.3000273748023332  0.7424691975535467  0.1336184447175768  1.0000
  H   H18       1.0  0.20464283255609667  0.24412990177304286  0.3647554485070757  1.0000
  H   H19       1.0  0.698589408430074  0.753413992660555  0.1362674190563951  1.0000
  H   H20       1.0  0.8010342810991345  0.2556739713206682  0.3655245633081989  1.0000
  H   H21       1.0  0.6993596262512084  0.25510138668254007  0.866212553645582  1.0000
  H   H22       1.0  0.8005922694111264  0.7528874582955397  0.6327229188275967  1.0000
  H   H23       1.0  0.30080499678013684  0.24463314634915892  0.865740166879661  1.0000
  H   H24       1.0  0.19926916700131866  0.7439412775288048  0.6337148471981493  1.0000
  H   H25       1.0  0.6241438868140818  0.6716469969284874  0.8679806080986908  1.0000
  H   H26       1.0  0.8745698103225336  0.17120268786755588  0.6322268358048647  1.0000
  H   H27       1.0  0.3726166303946171  0.8289969866730544  0.8680780095240977  1.0000
  H   H28       1.0  0.12612664750608363  0.3282554159823264  0.6326526809753548  1.0000
  H   H29       1.0  0.3740956528956545  0.32858129668676384  0.13325499071791574  1.0000
  H   H30       1.0  0.1279917739347098  0.8260579956201184  0.372862546582212  1.0000
  H   H31       1.0  0.6249045613724602  0.17168626115569913  0.13182971315453074  1.0000
  H   H32       1.0  0.8759897511819331  0.6711527035570841  0.36219232171168875  1.0000
  H   H33       1.0  0.4940604005013114  0.8711978315355892  0.830976936409549  1.0000
  H   H34       1.0  0.005168224357994698  0.37038404047535783  0.6693326689043675  1.0000
  H   H35       1.0  0.5029876515104873  0.6294976012668914  0.8311463246272626  1.0000
  H   H36       1.0  0.995191776633348  0.12880853420260513  0.668989559334115  1.0000
  H   H37       1.0  0.5045807889092941  0.12915334638648088  0.1700965633127041  1.0000
  H   H38       1.0  0.9978154319142333  0.6328457878313286  0.32151843057128104  1.0000
  H   H39       1.0  0.4952054904330793  0.37025679700897035  0.17187420465020156  1.0000
  H   H40       1.0  0.008033318758940297  0.8727614897890988  0.33426271239004285  1.0000
  H   H41       1.0  0.3742885563824387  0.7407578142931044  0.21920677896362414  1.0000
  H   H42       1.0  0.1293005392469624  0.2437264499219225  0.27931075164716657  1.0000
  H   H43       1.0  0.621840266848771  0.7532970672015651  0.221280547430375  1.0000
  H   H44       1.0  0.8771302589540824  0.25558579806965304  0.2801763435971126  1.0000
  H   H45       1.0  0.6239774199112631  0.25566061332908424  0.7808245782201485  1.0000
  H   H46       1.0  0.8733974842550865  0.754394666603382  0.7186051479296085  1.0000
  H   H47       1.0  0.3763969032114148  0.2444248339844962  0.7802989413297257  1.0000
  H   H48       1.0  0.12272320471263498  0.7436824614102735  0.7188505429617538  1.0000
  H   H49       1.0  0.6543300165619002  0.9269125530220206  0.832975583812285  1.0000
  H   H50       1.0  0.845082648706004  0.42650470663697604  0.6671755098420677  1.0000
  H   H51       1.0  0.3427577182758411  0.5736814077074683  0.8334334605914082  1.0000
  H   H52       1.0  0.15535564986770817  0.0726423070990805  0.6667444351401529  1.0000
  H   H53       1.0  0.34454416976539187  0.0729640835023559  0.1673711033007166  1.0000
  H   H54       1.0  0.15766809777619534  0.5763221243486498  0.3201905251770044  1.0000
  H   H55       1.0  0.6555339655405348  0.42619225510800635  0.1694269780877491  1.0000
  H   H56       1.0  0.8477638713757967  0.9286141571491626  0.3365969287246602  1.0000
  H   H57       1.0  0.11416221836444862  0.9685477311704459  0.0019449170746242007  1.0000
  H   H58       1.0  0.3825243527530801  0.4682836722282673  0.4997449154304122  1.0000
  H   H59       1.0  0.8843119954795354  0.5301768161814805  0.0021028003002712004  1.0000
  H   H60       1.0  0.612343790445074  0.03188556145603631  0.4980547521006997  1.0000
  H   H61       1.0  0.8871903769220282  0.0307176905590083  0.9982399163630264  1.0000
  H   H62       1.0  0.6246039287179528  0.5272551453215684  0.49707773509436504  1.0000
  H   H63       1.0  0.1135401543529042  0.46850400266963993  0.9985737011842064  1.0000
  H   H64       1.0  0.3860176233938404  0.9679919346759719  0.5003426669534364  1.0000
  H   H65       1.0  0.20393448607179473  0.9677838335061606  0.08264643204124411  1.0000
  H   H66       1.0  0.2932499525661285  0.4682934794543316  0.41855183700875653  1.0000
  H   H67       1.0  0.7936769103923497  0.5292380831854118  0.08276301086819161  1.0000
  H   H68       1.0  0.7022238942975958  0.03180353847146481  0.4171608680494857  1.0000
  H   H69       1.0  0.7969392187100011  0.030806778585826998  0.9175826204582977  1.0000
  H   H70       1.0  0.7080968787590152  0.5276545439929947  0.5795379729034738  1.0000
  H   H71       1.0  0.20314729569410153  0.46878288081699543  0.9175866361714357  1.0000
  H   H72       1.0  0.2959134327519024  0.9683949409955873  0.5811261751603212  1.0000
  H   H73       1.0  0.17734307811021208  0.7502024846364106  0.9792730358325984  1.0000
  H   H74       1.0  0.3216481507046396  0.24929415141978248  0.5203595622338213  1.0000
  H   H75       1.0  0.8218046407889759  0.7490731235097386  0.9817838918353774  1.0000
  H   H76       1.0  0.6787565396785737  0.24972171038243832  0.5204891865300213  1.0000
  H   H77       1.0  0.8213809381776045  0.24871107217229144  0.0207920273651681  1.0000
  H   H78       1.0  0.6875213062814965  0.7460887573293604  0.4766232584082815  1.0000
  H   H79       1.0  0.1791146183329246  0.2503307593631305  0.0204440624466571  1.0000
  H   H80       1.0  0.3244959433979063  0.7490433274020772  0.47977954613264023  1.0000
  H   H81       1.0  0.784113052059027  0.7278194210522103  0.8681360034164032  1.0000
  H   H82       1.0  0.7146156047276548  0.22779926226844788  0.6321231466847976  1.0000
  H   H83       1.0  0.21263630285582738  0.7726915392942857  0.8683049698594587  1.0000
  H   H84       1.0  0.2860609571093988  0.2716263528123052  0.6325776342931493  1.0000
  H   H85       1.0  0.21422510128055444  0.271942212210881  0.1324301159590888  1.0000
  H   H86       1.0  0.28742988683100634  0.7689268827478486  0.37157700791348003  1.0000
  H   H87       1.0  0.7850107809179361  0.22801591415717587  0.1314231941520276  1.0000
  H   H88       1.0  0.7160546694409645  0.7275789960106637  0.3623781742353104  1.0000
  H   H89       1.0  0.2721290257039684  0.7484705072731829  0.058922112312458814  1.0000
  H   H90       1.0  0.22683886057001254  0.24860067339107417  0.4406102529656622  1.0000
  H   H91       1.0  0.7264472147670061  0.7490814602720733  0.061395940804963814  1.0000
  H   H92       1.0  0.7738468164824467  0.25043604934894853  0.44069726463416004  1.0000
  H   H93       1.0  0.7261046356192579  0.24962222785940472  0.9412085928946043  1.0000
  H   H94       1.0  0.7774619088816905  0.7470614766019137  0.5578113330386857  1.0000
  H   H95       1.0  0.27409748826472224  0.24981364094672642  0.9406607486694301  1.0000
  H   H96       1.0  0.2290022134169192  0.7486038507993982  0.5593007440337844  1.0000
  H   H97       1.0  0.06491601359436319  0.05428930645931728  0.931729389531036  1.0000
  H   H98       1.0  0.44217007106917805  0.5546792290467907  0.5661361550533357  1.0000
  H   H99       1.0  0.9337646131649321  0.4449440968947229  0.9327517973209682  1.0000
  H   H100      1.0  0.5640727810203146  0.9453549612838757  0.5679184261873331  1.0000
  H   H101      1.0  0.9355439469208875  0.9451835422372525  0.06761503421616061  1.0000
  H   H102      1.0  0.5633240492144083  0.4587398668133745  0.43463372253668103  1.0000
  H   H103      1.0  0.0647794184259141  0.5542254331621238  0.06823069617898621  1.0000
  H   H104      1.0  0.431958360717978  0.05341798655507551  0.4303951857939127  1.0000
  H   H105      1.0  0.91730241897838  0.010858939877024902  0.76980033569582  1.0000
  H   H106      1.0  0.5824036744781297  0.5107185940426219  0.7298627196468956  1.0000
  H   H107      1.0  0.08081825434195619  0.4899965451042049  0.7706931363924173  1.0000
  H   H108      1.0  0.41526712712953184  0.9892161944494834  0.7296038014259525  1.0000
  H   H109      1.0  0.08133475992327989  0.9886676427389317  0.23000910823843412  1.0000
  H   H110      1.0  0.42291440291300836  0.4974028685274021  0.2694771823816495  1.0000
  H   H111      1.0  0.9121189707841921  0.5098169230394519  0.22886982859319727  1.0000
  H   H112      1.0  0.5893544310005154  0.014252389082500398  0.27039270984620606  1.0000
  H   H113      1.0  0.9378800737145381  0.0970115376545024  0.7458210432337538  1.0000
  H   H114      1.0  0.559630572405375  0.5965544380831105  0.7538813119230028  1.0000
  H   H115      1.0  0.060946187312289596  0.40394562529424155  0.7465329304617967  1.0000
  H   H116      1.0  0.4376695210204602  0.9035841249075819  0.7541106792075214  1.0000
  H   H117      1.0  0.059746433383352796  0.9026691129917809  0.2540070286477558  1.0000
  H   H118      1.0  0.43528086668200666  0.4084346491476083  0.24935460185368902  1.0000
  H   H119      1.0  0.9336353804851855  0.5953909514401233  0.2535994602106868  1.0000
  H   H120      1.0  0.5631200351071897  0.09947282718161433  0.24607698262339286  1.0000
  H   H121      1.0  0.8287775837024541  0.07737594532901679  0.7782903861927082  1.0000
  H   H122      1.0  0.6704245193790469  0.5778227328809039  0.7227699761861004  1.0000
  H   H123      1.0  0.16996754495880848  0.4238416003346258  0.7788512931595905  1.0000
  H   H124      1.0  0.3280139530809336  0.9218026144737692  0.7218051931293133  1.0000
  H   H125      1.0  0.16958685312214064  0.92182537116328  0.22207761352833444  1.0000
  H   H126      1.0  0.3285786291721421  0.4361694137102035  0.2809989826516244  1.0000
  H   H127      1.0  0.8250337905128261  0.5772341537434899  0.22047088107258622  1.0000
  H   H128      1.0  0.672965940022152  0.0837635249056063  0.278858547593437  1.0000
  H   H129      1.0  0.9657217724776785  0.2893137779133924  0.7633305643665621  1.0000
  H   H130      1.0  0.533169993255285  0.7883210524080935  0.7370684528011682  1.0000
  H   H131      1.0  0.03485601369251869  0.21169319128240013  0.7633097965671  1.0000
  H   H132      1.0  0.46519781141305566  0.7102446918341841  0.7364356554498955  1.0000
  H   H133      1.0  0.0325929439033743  0.7103662560802491  0.2363979800587686  1.0000
  H   H134      1.0  0.46805941392197076  0.22077368459422783  0.26539685682478625  1.0000
  H   H135      1.0  0.9641866943126232  0.7883343182431517  0.23659642503996994  1.0000
  H   H136      1.0  0.5428041740718256  0.29537205887694273  0.2670495034153078  1.0000
  H   H137      1.0  0.018244344381543005  0.1943880075641715  0.9158974890561  1.0000
  H   H138      1.0  0.4875606431230679  0.69479927073224  0.5827411028986662  1.0000
  H   H139      1.0  0.9813368413089023  0.30513981430877374  0.916483000921346  1.0000
  H   H140      1.0  0.5175403713175727  0.805334794234618  0.5838702101288079  1.0000
  H   H141      1.0  0.9818353851068053  0.8050543551073093  0.08369341683525992  1.0000
  H   H142      1.0  0.5280521190435863  0.31728649166894485  0.4167688081700832  1.0000
  H   H143      1.0  0.018052257945662092  0.6942482000712359  0.0840882037208246  1.0000
  H   H144      1.0  0.4752577128612998  0.19454523179380354  0.4161247627576046  1.0000
  H   H145      1.0  0.8622889018278244  0.1982660793775892  0.7958007531691252  1.0000
  H   H146      1.0  0.6383576751244107  0.6985896187213426  0.7044627818709942  1.0000
  H   H147      1.0  0.1375901184555062  0.3027658490842597  0.7962676976641917  1.0000
  H   H148      1.0  0.3614932494007732  0.8011032068832691  0.7038724632058548  1.0000
  H   H149      1.0  0.136560800153525  0.8011044308344211  0.20413011226513336  1.0000
  H   H150      1.0  0.36838886957461636  0.3118816527826099  0.29805889337713865  1.0000
  H   H151      1.0  0.8603266847957016  0.6979645457600157  0.20375790741422867  1.0000
  H   H152      1.0  0.6389328743543743  0.2013508771200705  0.2990169201541519  1.0000
  H   H153      1.0  0.8924665150563413  0.24979479250613684  0.8491272736181589  1.0000
  H   H154      1.0  0.6080766946049819  0.7506603709626916  0.6513778349351469  1.0000
  H   H155      1.0  0.1072527836877697  0.2504949616754928  0.8492592361756623  1.0000
  H   H156      1.0  0.39282611252334476  0.7496363421936251  0.6506135013642338  1.0000
  H   H157      1.0  0.10640326745988198  0.749493761950923  0.15085631046685682  1.0000
  H   H158      1.0  0.39739647766408126  0.2619482686038239  0.3522701541000047  1.0000
  H   H159      1.0  0.8912735570214423  0.7496650343279329  0.15054972948782824  1.0000
  H   H160      1.0  0.6084433967894398  0.25023570680925644  0.35358773803405097  1.0000
  C   C1        1.0  0.8242004176228902  0.8655391041525248  0.8542297935201832  1.0000
  C   C2        1.0  0.6752625261853354  0.3655709929280563  0.6458169454196963  1.0000
  C   C3        1.0  0.1728901660424285  0.634808792506199  0.8544920198511434  1.0000
  C   C4        1.0  0.3252963154057085  0.13378314062874347  0.6459334271933772  1.0000
  C   C5        1.0  0.1748667814153677  0.134029868253009  0.14575863345316983  1.0000
  C   C6        1.0  0.3248067770815126  0.6326383178888123  0.3494449046920352  1.0000
  C   C7        1.0  0.8248003539528029  0.36539664830084456  0.1463549439894578  1.0000
  C   C8        1.0  0.6766347536143158  0.8664584542030198  0.35307654275593603  1.0000
  C   C9        1.0  0.4238088522278715  0.8512428766260957  0.27811363406654277  1.0000
  C   C10       1.0  0.07395828328984777  0.3541226537556313  0.22276668859729656  1.0000
  C   C11       1.0  0.5680004196682942  0.6425306034510642  0.27832367664999685  1.0000
  C   C12       1.0  0.927586968310017  0.1447671479429573  0.22274436873254197  1.0000
  C   C13       1.0  0.574149308473892  0.14514528573347726  0.7229074415939821  1.0000
  C   C14       1.0  0.9241796939381925  0.6445058167835003  0.7773322345484246  1.0000
  C   C15       1.0  0.4263360567639154  0.35501323331487106  0.722514232945301  1.0000
  C   C16       1.0  0.071551661518285  0.8541518898386826  0.776534521889012  1.0000
  C   C17       1.0  0.7293376591611531  0.8310295817714177  0.850882901454341  1.0000
  C   C18       1.0  0.7698647155234255  0.33077815328158516  0.6493197018083238  1.0000
  C   C19       1.0  0.2676282850290547  0.6695399549896593  0.8511721023867197  1.0000
  C   C20       1.0  0.23062385317842168  0.16851081582158398  0.649279315275372  1.0000
  C   C21       1.0  0.26941367422113416  0.16881397601485298  0.14950049875834995  1.0000
  C   C22       1.0  0.23268779458046396  0.6689831838738342  0.3459341463773598  1.0000
  C   C23       1.0  0.7301466217230227  0.3307493858984643  0.1499715858548285  1.0000
  C   C24       1.0  0.7716365979133216  0.8318593034661818  0.3499539575986432  1.0000
  C   C25       1.0  0.38161972526815907  0.8531836356365762  0.22567893304923817  1.0000
  C   C26       1.0  0.1161403688138165  0.3559686137990711  0.2751509492093689  1.0000
  C   C27       1.0  0.6115177233090207  0.6409094621158288  0.22597161778247005  1.0000
  C   C28       1.0  0.8851244616538309  0.14314600665791496  0.2751425961161615  1.0000
  C   C29       1.0  0.6161272724179057  0.14323450897774853  0.775327308896351  1.0000
  C   C30       1.0  0.8817090969962605  0.6420343995123261  0.7249420866818996  1.0000
  C   C31       1.0  0.3840763162882936  0.3568520820763013  0.7748986867129164  1.0000
  C   C32       1.0  0.11470203919866859  0.8560832554666221  0.7242360761979969  1.0000
  C   C33       1.0  0.5463455211161161  0.766912659148545  0.8492458888858181  1.0000
  C   C34       1.0  0.952417845083893  0.26630179453463404  0.6510638979224839  1.0000
  C   C35       1.0  0.45050871521494423  0.7337706550045907  0.8493239034645654  1.0000
  C   C36       1.0  0.048079616383326085  0.233015728001547  0.6510665492267762  1.0000
  C   C37       1.0  0.4518480623837533  0.2333193243542055  0.15197750186867862  1.0000
  C   C38       1.0  0.050275592604968694  0.7340182670564843  0.3470352585484093  1.0000
  C   C39       1.0  0.5475367323830227  0.2665479656856321  0.15202479420872092  1.0000
  C   C40       1.0  0.9547147386320917  0.7674473426392083  0.3479316370388545  1.0000
  C   C41       1.0  0.295949215714451  0.8561841302585337  0.1274750266694724  1.0000
  C   C42       1.0  0.20206517107651217  0.3575668098107769  0.3731494745814886  1.0000
  C   C43       1.0  0.7006615547642453  0.6398766569091308  0.12841058836217917  1.0000
  C   C44       1.0  0.7973014566638383  0.1420761513283253  0.3727838450200593  1.0000
  C   C45       1.0  0.7029067883768221  0.14145662471170084  0.8731402564117803  1.0000
  C   C46       1.0  0.7975330317441305  0.639165668770815  0.6262855561552388  1.0000
  C   C47       1.0  0.2970559312686518  0.3582598930329013  0.872742352348624  1.0000
  C   C48       1.0  0.2031706345147768  0.8575799852463889  0.6265731406543864  1.0000
  C   C49       1.0  0.36293417978070147  0.9172518429609866  0.20114021424535627  1.0000
  C   C50       1.0  0.1314434183662101  0.4195690542401778  0.3008068927167145  1.0000
  C   C51       1.0  0.6296077387219584  0.57743124675833  0.20062950001271673  1.0000
  C   C52       1.0  0.8663109284147692  0.07952902441921592  0.30019025543700206  1.0000
  C   C53       1.0  0.634750561941793  0.07944401218615842  0.8002047727424256  1.0000
  C   C54       1.0  0.8630541957366233  0.5780124093146668  0.7004327602573995  1.0000
  C   C55       1.0  0.365297896336088  0.4205648366234841  0.7998082375059072  1.0000
  C   C56       1.0  0.1339642935127117  0.9197536634811456  0.6993410375436042  1.0000
  C   C57       1.0  0.3206518976409853  0.9186882905706358  0.15308194395249333  1.0000
  C   C58       1.0  0.1736465953672095  0.42031271803364223  0.34889643488187977  1.0000
  C   C59       1.0  0.6737535682971085  0.5769573106048682  0.152917979888656  1.0000
  C   C60       1.0  0.8228404487809087  0.0790957623983104  0.348025495769008  1.0000
  C   C61       1.0  0.6775915660817943  0.07864142420771  0.8481401265773415  1.0000
  C   C62       1.0  0.8213965704432482  0.5766747011502602  0.6521869511953824  1.0000
  C   C63       1.0  0.322296654934881  0.42117606473539143  0.8477596005400303  1.0000
  C   C64       1.0  0.17763576735828218  0.9204347716539304  0.6515327983955219  1.0000
  C   C65       1.0  0.3177484410405286  0.7921447517072977  0.15199478116322507  1.0000
  C   C66       1.0  0.18377854533284926  0.2939165390044495  0.3474330136822276  1.0000
  C   C67       1.0  0.6792568209316769  0.7033744317078217  0.15369075358669454  1.0000
  C   C68       1.0  0.8195209213137318  0.20567197886394695  0.34780422015536067  1.0000
  C   C69       1.0  0.6810390700215406  0.20522408677568652  0.8483020408968616  1.0000
  C   C70       1.0  0.8183402779138547  0.7031556363387849  0.6510577333821743  1.0000
  C   C71       1.0  0.3190586007012328  0.2945764568851671  0.8478512317332518  1.0000
  C   C72       1.0  0.1808463979897965  0.7939243297459555  0.6514886455744532  1.0000
  C   C73       1.0  0.6299253862836451  0.7274556270027475  0.8591331482088268  1.0000
  C   C74       1.0  0.8688309866214823  0.2269892281637169  0.6411235642759721  1.0000
  C   C75       1.0  0.3668818589801575  0.7731994654368393  0.8592441951164531  1.0000
  C   C76       1.0  0.1317578298499882  0.27239637006635326  0.6413345168234488  1.0000
  C   C77       1.0  0.36830071424498106  0.27272231501049043  0.1419359385997154  1.0000
  C   C78       1.0  0.13379239295564824  0.7715911002157013  0.3603802299840595  1.0000
  C   C79       1.0  0.6309145481747079  0.2272891770858934  0.1412486148313121  1.0000
  C   C80       1.0  0.8706039867875147  0.7275477063824524  0.3554326104640638  1.0000
  C   C81       1.0  0.5570904113749505  0.8392640198152322  0.8394526477952626  1.0000
  C   C82       1.0  0.942022079286616  0.33865581208837636  0.6608298858423896  1.0000
  C   C83       1.0  0.4399160308849588  0.6614063985451466  0.8396468232209386  1.0000
  C   C84       1.0  0.058394501995479686  0.16058432183006494  0.6606081709751594  1.0000
  C   C85       1.0  0.4414403133778463  0.16090969010846123  0.16154682787062313  1.0000
  C   C86       1.0  0.06089604869928419  0.6631093179223627  0.33251638784783216  1.0000
  C   C87       1.0  0.5581694638526855  0.3386681847642592  0.16256242852200845  1.0000
  C   C88       1.0  0.9445683736004895  0.8404853697647499  0.3409580145163957  1.0000
  C   C89       1.0  0.3591758119082655  0.790528764040303  0.2002661072950573  1.0000
  C   C90       1.0  0.14195901135850866  0.29303363838965163  0.29930747391640733  1.0000
  C   C91       1.0  0.6362505769857877  0.7039599314517488  0.2016279917407928  1.0000
  C   C92       1.0  0.8619630255663677  0.20629826871248008  0.29975347471037855  1.0000
  C   C93       1.0  0.6390134109983592  0.20620462533582903  0.8002082621058477  1.0000
  C   C94       1.0  0.8590078532659717  0.7046683479411866  0.6994978528310656  1.0000
  C   C95       1.0  0.3611974517223898  0.2937921380559558  0.7997409137694407  1.0000
  C   C96       1.0  0.1380855423335987  0.7930890986829199  0.6994669686626127  1.0000
  C   C97       1.0  0.6469054086574744  0.8709067971276525  0.8403821658380154  1.0000
  C   C98       1.0  0.8523489553122799  0.370490904834874  0.6598397150827395  1.0000
  C   C99       1.0  0.350152650465759  0.6297076855114979  0.8407110391852657  1.0000
  C   C100      1.0  0.14806636055366337  0.12872008737147672  0.6595671788470341  1.0000
  C   C101      1.0  0.3518320172594401  0.12904435327781275  0.16019600701581996  1.0000
  C   C102      1.0  0.15033295408775155  0.6310822678681165  0.331597727231106  1.0000
  C   C103      1.0  0.6479113828183429  0.37037481050077764  0.16141991966720334  1.0000
  C   C104      1.0  0.8547205748419485  0.8721647559196413  0.3420269839093281  1.0000
  C   C105      1.0  0.08130918461815638  0.8577976681826984  0.9373844771799896  1.0000
  C   C106      1.0  0.41623011352105266  0.3568652686203038  0.5631467071630568  1.0000
  C   C107      1.0  0.9170196220708746  0.6420628668764863  0.9385116730280458  1.0000
  C   C108      1.0  0.5827413591053554  0.14257552350365188  0.5628767046828714  1.0000
  C   C109      1.0  0.9184331347562205  0.14170235058996647  0.0626663843835331  1.0000
  C   C110      1.0  0.5946064957424182  0.6402252301606384  0.43261414830679  1.0000
  C   C111      1.0  0.08291662954936642  0.35728271993490074  0.06284654667952341  1.0000
  C   C112      1.0  0.4191370579351882  0.8566727296873039  0.43663650764146683  1.0000
  C   C113      1.0  0.13934556404002763  0.8592983293011969  0.9853938800203965  1.0000
  C   C114      1.0  0.3583684851980067  0.35869958875993296  0.5151651975681164  1.0000
  C   C115      1.0  0.8593414507844699  0.6397824024929406  0.9866964057615493  1.0000
  C   C116      1.0  0.6394745221182417  0.1408831058545061  0.5144792188901661  1.0000
  C   C117      1.0  0.8605211230056822  0.13983401739590556  0.014677260987625104  1.0000
  C   C118      1.0  0.6503167220400099  0.6368091483176312  0.4812715758799585  1.0000
  C   C119      1.0  0.1401603516809828  0.35929068821349125  0.014659719660436103  1.0000
  C   C120      1.0  0.3615106194235054  0.8584378866537109  0.4847978448423618  1.0000
  C   C121      1.0  0.1495114452368753  0.9205070166900098  0.014540349777718103  1.0000
  C   C122      1.0  0.34774086439946217  0.4203818707497647  0.4865650873829921  1.0000
  C   C123      1.0  0.8489931451367098  0.5779674448172116  0.015234664215256504  1.0000
  C   C124      1.0  0.6483650166236357  0.0795782573806747  0.48531714388105496  1.0000
  C   C125      1.0  0.851157485753859  0.07847283207122051  0.9856271950088031  1.0000
  C   C126      1.0  0.6586782654373522  0.5753513516002187  0.5103952511673171  1.0000
  C   C127      1.0  0.14939161931263104  0.42079720016029404  0.9857105349319044  1.0000
  C   C128      1.0  0.35092765043162183  0.9201072260792531  0.5134329287857896  1.0000
  C   C129      1.0  0.20124664643208223  0.9198481604865805  0.05995350542978171  1.0000
  C   C130      1.0  0.29628542764176297  0.4202014237569927  0.4410989264039956  1.0000
  C   C131      1.0  0.7968186697769468  0.5776607499199926  0.060588158182355314  1.0000
  C   C132      1.0  0.7001431550105578  0.0797385277936087  0.4398832188146856  1.0000
  C   C133      1.0  0.7991953496991967  0.0787241378622596  0.9403100653223008  1.0000
  C   C134      1.0  0.7068952025157601  0.5757378734948376  0.5569284175953869  1.0000
  C   C135      1.0  0.2009896283983608  0.42073274424932805  0.9402114028749224  1.0000
  C   C136      1.0  0.299032401201913  0.9201019194165596  0.558848144216107  1.0000
  C   C137      1.0  0.18422974532695238  0.7975483380817253  0.0023555409025917003  1.0000
  C   C138      1.0  0.3142969457308381  0.2969968592545555  0.49766231873694994  1.0000
  C   C139      1.0  0.814635752780937  0.7012270925082478  0.0043446288775684  1.0000
  C   C140      1.0  0.6849581736535909  0.2023181100897418  0.49740560244205073  1.0000
  C   C141      1.0  0.8149287941000553  0.20129999467057763  0.9977525548598508  1.0000
  C   C142      1.0  0.6935873245119238  0.6984634332493017  0.49948475466840153  1.0000
  C   C143      1.0  0.18550692666900656  0.2978525228076379  0.997475729803654  1.0000
  C   C144      1.0  0.31711032447519466  0.7968202379433365  0.5023688199039712  1.0000
  C   C145      1.0  0.7201668200007203  0.7586735578326014  0.859751333980377  1.0000
  C   C146      1.0  0.7787208993220884  0.2584266888320529  0.6404857686500379  1.0000
  C   C147      1.0  0.27667344912509156  0.7419017147711032  0.8599253831702358  1.0000
  C   C148      1.0  0.22185715531430356  0.24094417586425726  0.6407061801385723  1.0000
  C   C149      1.0  0.2782587932738707  0.2412492575932816  0.1409117368304464  1.0000
  C   C150      1.0  0.22368457082521329  0.7398415463322222  0.36009768016376154  1.0000
  C   C151      1.0  0.7210692337771646  0.25858803837301997  0.14043949323612281  1.0000
  C   C152      1.0  0.780405383869933  0.7589315809677402  0.3562202634697442  1.0000
  C   C153      1.0  0.24545031133128248  0.8579090009553525  0.07780106384726082  1.0000
  C   C154      1.0  0.2526551770564609  0.35844589991829423  0.4227407469658148  1.0000
  C   C155      1.0  0.7524358958857106  0.6392070878999404  0.07900692897801062  1.0000
  C   C156      1.0  0.7456182369726604  0.14120583832684022  0.4221259216034028  1.0000
  C   C157      1.0  0.7540442941512565  0.14032100321018964  0.9225717382976769  1.0000
  C   C158      1.0  0.7497720652256061  0.637530086058291  0.5758440869109621  1.0000
  C   C159      1.0  0.24602477253946378  0.35919240380078327  0.9222560978467345  1.0000
  C   C160      1.0  0.2547814135362358  0.8584361654524314  0.5771443895366205  1.0000
  C   C161      1.0  0.23663250083117754  0.7970228717012802  0.047473975278236914  1.0000
  C   C162      1.0  0.2620050052796898  0.29703177645101425  0.452519888518033  1.0000
  C   C163      1.0  0.7619085942900555  0.7007677802443768  0.0494134044487424  1.0000
  C   C164      1.0  0.7374413714833494  0.20230271414209977  0.4522674913223313  1.0000
  C   C165      1.0  0.762308461881709  0.20137326843602213  0.9527259513729904  1.0000
  C   C166      1.0  0.7429146390706761  0.6985757833865592  0.5455233858063551  1.0000
  C   C167      1.0  0.23789025104215966  0.2979873596425123  0.9523211961143547  1.0000
  C   C168      1.0  0.2643491736230672  0.797012705951083  0.5474386162881829  1.0000
  C   C169      1.0  0.029547472361585392  0.07946142670859052  0.8997689111203614  1.0000
  C   C170      1.0  0.4760843414346993  0.5797831118704196  0.5985373046206919  1.0000
  C   C171      1.0  0.9692074983435005  0.42012001991927417  0.9006482260488441  1.0000
  C   C172      1.0  0.5286751273555055  0.9202513723871559  0.5999338601563837  1.0000
  C   C173      1.0  0.970456226551498  0.9200140782004594  0.09971926995428503  1.0000
  C   C174      1.0  0.5289095274471265  0.4329699255916071  0.4027400931750833  1.0000
  C   C175      1.0  0.028635775653526697  0.5792346278054409  0.10004226956440485  1.0000
  C   C176      1.0  0.46814422551700113  0.07954319432325718  0.3990767104427207  1.0000
  C   C177      1.0  0.9525888573859829  0.0851952278431298  0.8268455282757189  1.0000
  C   C178      1.0  0.5489849038350769  0.5853195374484486  0.6726048035061611  1.0000
  C   C179      1.0  0.04626542841277371  0.4151407564675793  0.8276190280531923  1.0000
  C   C180      1.0  0.45168954911510895  0.9145541999824687  0.672946837142213  1.0000
  C   C181      1.0  0.04661440732178329  0.9142918851717142  0.17289308148183843  1.0000
  C   C182      1.0  0.4524575743216204  0.4261293110677329  0.3293447057551759  1.0000
  C   C183      1.0  0.9500203426979823  0.584691792723561  0.17256312435213064  1.0000
  C   C184      1.0  0.5479606715084984  0.08751985930379651  0.3270687603267605  1.0000
  C   C185      1.0  0.9064515566221942  0.0668270516069853  0.7775234429893914  1.0000
  C   C186      1.0  0.5928765126097063  0.5668182938988551  0.7224937083573479  1.0000
  C   C187      1.0  0.0922155167372907  0.4340370538082469  0.7782624400433849  1.0000
  C   C188      1.0  0.40549052811633157  0.9330454263062079  0.7222907387223004  1.0000
  C   C189      1.0  0.09197575638443568  0.9326406953571154  0.22242128868478522  1.0000
  C   C190      1.0  0.40701793454321944  0.4428524863159354  0.279536498537901  1.0000
  C   C191      1.0  0.9024990805378366  0.565996576446942  0.22151913908034976  1.0000
  C   C192      1.0  0.5960809325108158  0.0706100826918146  0.2779580380463571  1.0000
  C   C193      1.0  0.00011211398510369979  0.25041510344276935  0.7884359745285892  1.0000
  C   C194      1.0  0.4996111021194309  0.7495118915700588  0.7116236904817017  1.0000
  C   C195      1.0  0.9984358466309898  0.7494638962891998  0.2113978690307547  1.0000
  C   C196      1.0  0.5044663592112926  0.25749547608783985  0.2913705057067873  1.0000
  C   C197      1.0  0.007109499743023698  0.1487185187508118  0.8920716887863238  1.0000
  C   C198      1.0  0.49793013391190033  0.6490193482404223  0.6065976917928141  1.0000
  C   C199      1.0  0.9921509004369041  0.3509944545148542  0.892752079394832  1.0000
  C   C200      1.0  0.5064334845927263  0.8510074431139499  0.6077043488296071  1.0000
  C   C201      1.0  0.9927116445773194  0.8507569809805486  0.10751814799305492  1.0000
  C   C202      1.0  0.5126523727418117  0.363167356434289  0.3937407302336383  1.0000
  C   C203      1.0  0.006216867583312099  0.6484683541624463  0.10776214860027981  1.0000
  C   C204      1.0  0.48887560551317216  0.14924765796467906  0.39220837997881836  1.0000
  C   C205      1.0  0.9223581932460475  0.2142322787101278  0.8201741794956521  1.0000
  C   C206      1.0  0.57838136459182  0.7143902363875371  0.6799299197266607  1.0000
  C   C207      1.0  0.07741458911688429  0.2863431671004975  0.8204954182225138  1.0000
  C   C208      1.0  0.4219977587610728  0.7853441493242386  0.6796353100645335  1.0000
  C   C209      1.0  0.07652962045401067  0.7852448681505353  0.17968484620040934  1.0000
  C   C210      1.0  0.4282228443037964  0.2961261937825768  0.3226826944089468  1.0000
  C   C211      1.0  0.9206734301021412  0.713843638269921  0.17946416888846534  1.0000
  C   C212      1.0  0.5783508634175192  0.21722500673868697  0.3231559151662466  1.0000
  N   N1        1.0  0.9951148790912114  0.0405329509810244  0.8592492842408248  1.0000
  N   N2        1.0  0.5082634437479427  0.5407532529947617  0.6395606147258805  1.0000
  N   N3        1.0  0.003393253683348999  0.4594168710379735  0.8601895862342561  1.0000
  N   N4        1.0  0.49413122196261117  0.9591846532826556  0.6404671014896195  1.0000
  N   N5        1.0  0.004498701375602798  0.9589310370642893  0.14033183739566374  1.0000
  N   N6        1.0  0.49033365704852366  0.471637047083938  0.3630213509484364  1.0000
  N   N7        1.0  0.993214026213316  0.540160769963137  0.14031181918131352  1.0000
  N   N8        1.0  0.5054192222902003  0.04163928270836691  0.3586256344705348  1.0000
  N   N9        1.0  0.9581578835114185  0.15166710981336706  0.846043465980401  1.0000
  N   N10       1.0  0.544250386548228  0.651876668958387  0.6533998434586012  1.0000
  N   N11       1.0  0.041159957295526794  0.34853250955553255  0.846656070976991  1.0000
  N   N12       1.0  0.45749130733393173  0.8480418083938872  0.6537891538014906  1.0000
  N   N13       1.0  0.04120701062716141  0.847824181677872  0.15367599351505132  1.0000
  N   N14       1.0  0.4641437702060713  0.3594110171944038  0.3476781503981102  1.0000
  N   N15       1.0  0.9562750210936811  0.6512667257418203  0.15354786936735826  1.0000
  N   N16       1.0  0.5395691432000831  0.1537053526655541  0.346708978740793  1.0000
  O   O1        1.0  0.9014179735188677  0.8304818048324806  0.8601643252693308  1.0000
  O   O2        1.0  0.597791703408781  0.3308238163352968  0.6400907065091844  1.0000
  O   O3        1.0  0.09529069058451967  0.6696107180480624  0.8598066307836731  1.0000
  O   O4        1.0  0.4027690005188304  0.1686659694968924  0.6405325109273293  1.0000
  O   O5        1.0  0.0973174178813707  0.16870484755402523  0.13991786466790054  1.0000
  O   O6        1.0  0.40217609052238146  0.6613338646376263  0.36798431317176045  1.0000
  O   O7        1.0  0.9020577631252847  0.3304854406450417  0.13996644462213234  1.0000
  O   O8        1.0  0.5990463358624252  0.8315858420919398  0.357925205692041  1.0000
  O   O9        1.0  0.4569999013446235  0.9100288979722322  0.2948579015627573  1.0000
  O   O10       1.0  0.040546158861879185  0.4127339136433649  0.2056439346545815  1.0000
  O   O11       1.0  0.5286932274435897  0.5861357188366797  0.2943435204406129  1.0000
  O   O12       1.0  0.9630942654376893  0.08642383373882008  0.20638914282613294  1.0000
  O   O13       1.0  0.5408437007550972  0.08652907147191513  0.7057911638720004  1.0000
  O   O14       1.0  0.9595750721524824  0.5863575098785959  0.7941952935681371  1.0000
  O   O15       1.0  0.45985811774934865  0.4136128644170186  0.7053874033962373  1.0000
  O   O16       1.0  0.037181542247054694  0.9126665615090488  0.7933186474531909  1.0000
  O   O17       1.0  0.0420750447363076  0.9161157767876346  0.9233096575068488  1.0000
  O   O18       1.0  0.4542505212866245  0.4153392711936803  0.5776784136700571  1.0000
  O   O19       1.0  0.9570536882667753  0.5840744595005846  0.9243216679569883  1.0000
  O   O20       1.0  0.5446689430799623  0.08416730591618922  0.5775647363061439  1.0000
  O   O21       1.0  0.958436002429508  0.08360582234705298  0.07650792437380012  1.0000
  O   O22       1.0  0.5640223668698923  0.5811577841176004  0.4143951809238403  1.0000
  O   O23       1.0  0.044861936626539  0.41562290434195853  0.0776954526157709  1.0000
  O   O24       1.0  0.4552456617369316  0.9153546755621136  0.42130471728933133  1.0000
  O   O25       1.0  0.07614683828018798  0.7998045571494928  0.9141436886923131  1.0000
  O   O26       1.0  0.422380558978027  0.2985127528514795  0.585877116693233  1.0000
  O   O27       1.0  0.9210692302132769  0.7001426616577221  0.9152314620853305  1.0000
  O   O28       1.0  0.5777856579994775  0.20071714123795206  0.5859671936671091  1.0000
  O   O29       1.0  0.922581178728464  0.199639936050005  0.08602591462248203  1.0000
  O   O30       1.0  0.582268033198275  0.7003123272164301  0.4132823732999853  1.0000
  O   O31       1.0  0.0773601066456777  0.2988730654193006  0.08559985143490681  1.0000
  O   O32       1.0  0.4266339400774656  0.7979257926761251  0.414393999004254  1.0000
  O   O33       1.0  0.42207950949546097  0.7932559880314687  0.30175171907833953  1.0000
  O   O34       1.0  0.0758465796059369  0.2961750160241153  0.19935670154798407  1.0000
  O   O35       1.0  0.5755463419302487  0.7001131935964439  0.30261946855716104  1.0000
  O   O36       1.0  0.9236211628434104  0.20215654473496866  0.198701863631868  1.0000
  O   O37       1.0  0.5762390631514974  0.2030679701839802  0.6994262317206578  1.0000
  O   O38       1.0  0.9208634126986297  0.7023166038160582  0.8008542391473201  1.0000
  O   O39       1.0  0.4242761025373198  0.2971262373494099  0.6990508924020774  1.0000
  O   O40       1.0  0.0737275531401735  0.7963265821218357  0.8000865189802583  1.0000
  O   O41       1.0  0.8310788953863907  0.9329097419420267  0.8523022711590901  1.0000
  O   O42       1.0  0.6689310496258685  0.43296482986087886  0.6473712755171519  1.0000
  O   O43       1.0  0.16659798814092852  0.567381564658355  0.8531136534286008  1.0000
  O   O44       1.0  0.33176293314137695  0.0663865068761496  0.6474357385411269  1.0000
  O   O45       1.0  0.168658874613989  0.06658308817164031  0.1473311303953295  1.0000
  O   O46       1.0  0.33465071116003736  0.5672422760766977  0.3383091439011425  1.0000
  O   O47       1.0  0.8314005906239429  0.4327326743676707  0.1484585383216128  1.0000
  O   O48       1.0  0.6699336922095966  0.9339269941768155  0.3518061312275337  1.0000
