data_image0
_chemical_formula_structural       Ni8H176C212N16O64
_chemical_formula_sum              "Ni8 H176 C212 N16 O64"
_cell_length_a       10.60145572790601
_cell_length_b       23.64457922724821
_cell_length_c       23.623965725691015
_cell_angle_alpha    94.80870236695569
_cell_angle_beta     102.97159301186407
_cell_angle_gamma    89.99935120578184

_space_group_name_H-M_alt    "P 1"
_space_group_IT_number       1

loop_
  _space_group_symop_operation_xyz
  'x, y, z'

loop_
  _atom_site_type_symbol
  _atom_site_label
  _atom_site_symmetry_multiplicity
  _atom_site_fract_x
  _atom_site_fract_y
  _atom_site_fract_z
  _atom_site_occupancy
  Ni  Ni1       1.0  0.061768586170586566  0.07248879775426079  0.4314008821360815  1.0000
  Ni  Ni2       1.0  0.6306157447311661  0.4275046467645963  0.5686260159494267  1.0000
  Ni  Ni3       1.0  0.9382291552407337  0.9275116863869286  0.5685982125057336  1.0000
  Ni  Ni4       1.0  0.3693780111696796  0.5724949831524812  0.4313748580906065  1.0000
  Ni  Ni5       1.0  0.825083176395914  0.9287002537016634  0.9814738665154367  1.0000
  Ni  Ni6       1.0  0.8434983538423636  0.5713284287493323  0.01860342293343114  1.0000
  Ni  Ni7       1.0  0.17491757617418097  0.07130064926501939  0.01852728436693951  1.0000
  Ni  Ni8       1.0  0.15650165063242147  0.42867375541386116  0.9813951098181236  1.0000
  H   H1        1.0  0.2426634140487067  0.12830389723966107  0.30122789955526497  1.0000
  H   H2        1.0  0.9419130025138285  0.37175884223710637  0.6988241650760968  1.0000
  H   H3        1.0  0.7573289718878868  0.8716936137396943  0.6987715114515255  1.0000
  H   H4        1.0  0.058087802559519695  0.6282445997732538  0.3011800506775657  1.0000
  H   H5        1.0  0.39098313249744615  0.16123750248075194  0.24098274606455317  1.0000
  H   H6        1.0  0.150646895770791  0.3389020663767682  0.7590528871268064  1.0000
  H   H7        1.0  0.6090085015944524  0.8387621333875331  0.7590160125481944  1.0000
  H   H8        1.0  0.8493535993207287  0.6611043456801653  0.24095212094203336  1.0000
  H   H9        1.0  0.6764468079197243  0.0433308734118825  0.315610468404941  1.0000
  H   H10       1.0  0.3611535065399921  0.4568345597613047  0.6843414190808234  1.0000
  H   H11       1.0  0.3235425843591812  0.9566670650898884  0.6843879079850481  1.0000
  H   H12       1.0  0.6388413768440699  0.5431693234141192  0.315656912231809  1.0000
  H   H13       1.0  0.5247080094930466  0.008395321471198298  0.3738607903826292  1.0000
  H   H14       1.0  0.15100721246866297  0.49167316193187816  0.6260600732295529  1.0000
  H   H15       1.0  0.4752809215472096  0.9916013473712298  0.6261361025427732  1.0000
  H   H16       1.0  0.8489861440702455  0.5083256281385217  0.37393746787522997  1.0000
  H   H17       1.0  0.504204954604532  0.031604382788913206  0.18929438183987202  1.0000
  H   H18       1.0  0.315170658555651  0.4684591966509614  0.8106813466740022  1.0000
  H   H19       1.0  0.4957912524628725  0.9683926956320688  0.8107078540676511  1.0000
  H   H20       1.0  0.6848275459690142  0.5315421353033682  0.18931824856402102  1.0000
  H   H21       1.0  0.5789219224280301  0.9739807379056131  0.11016639046581393  1.0000
  H   H22       1.0  0.46892546860375706  0.5260105112880211  0.8899051885169129  1.0000
  H   H23       1.0  0.4210789582431429  0.026015061884116602  0.8898375507765691  1.0000
  H   H24       1.0  0.5310747996025285  0.4739895412100452  0.11009640588227403  1.0000
  H   H25       1.0  0.9203928837723155  0.08013220826413199  0.13867008333847516  1.0000
  H   H26       1.0  0.7819287843308229  0.41977668465353457  0.8616316548224248  1.0000
  H   H27       1.0  0.07959998277870274  0.9198669968762588  0.861330849888283  1.0000
  H   H28       1.0  0.21806887582800977  0.5802229451733112  0.13836925053466592  1.0000
  H   H29       1.0  0.8446890338361966  0.1389258361787569  0.21767153712755774  1.0000
  H   H30       1.0  0.6272971685277325  0.36107064043275017  0.7824837390245918  1.0000
  H   H31       1.0  0.1553033483510191  0.8610725184930103  0.7823298396160112  1.0000
  H   H32       1.0  0.3727010553727083  0.6389311160232651  0.21751589496880544  1.0000
  H   H33       1.0  0.16410085119274234  0.20834129335857202  0.5907978469470763  1.0000
  H   H34       1.0  0.573182550392829  0.29170092445522044  0.40908956102814636  1.0000
  H   H35       1.0  0.8359053712014558  0.7916557895526851  0.4092027905698005  1.0000
  H   H36       1.0  0.4268155378771823  0.7082978604889761  0.5909098016776326  1.0000
  H   H37       1.0  0.1143096934912292  0.26308644534597647  0.6793893062800151  1.0000
  H   H38       1.0  0.4347688387101273  0.23705872709727774  0.3204641703914746  1.0000
  H   H39       1.0  0.885701241258289  0.7369102079373989  0.32061311408246956  1.0000
  H   H40       1.0  0.5652310670110836  0.7629417564036841  0.6795351514516028  1.0000
  H   H41       1.0  0.7831727789232588  0.1532477946215423  0.6660995723555345  1.0000
  H   H42       1.0  0.11678641993578505  0.3467265377792046  0.3340393909877832  1.0000
  H   H43       1.0  0.21683098855499597  0.8467526834782148  0.33390166903063095  1.0000
  H   H44       1.0  0.8832116645848416  0.6532730908574039  0.6659619374547675  1.0000
  H   H45       1.0  0.8297855413461193  0.10086136298424718  0.5776568951419989  1.0000
  H   H46       1.0  0.2518899224863063  0.3989955227339125  0.4225369239699077  1.0000
  H   H47       1.0  0.1702156374604583  0.8991391169459888  0.4223436959574514  1.0000
  H   H48       1.0  0.7481098632308658  0.601003257449328  0.5774641310776971  1.0000
  H   H49       1.0  0.0445125249023661  0.14584947886557126  0.752860409367031  1.0000
  H   H50       1.0  0.29129093712825227  0.3542403044172245  0.24710219522757626  1.0000
  H   H51       1.0  0.9554987604858097  0.8541543936019876  0.24714172572380735  1.0000
  H   H52       1.0  0.7087129753538903  0.6457610359633323  0.7528944031042571  1.0000
  H   H53       1.0  0.0855534270139132  0.11040669648958358  0.851920170453802  1.0000
  H   H54       1.0  0.23319163494068817  0.3897009586405106  0.1480321856912212  1.0000
  H   H55       1.0  0.9144569902749067  0.8895967538567718  0.14808107971074252  1.0000
  H   H56       1.0  0.7668153312011726  0.6103008058765057  0.8519645806551565  1.0000
  H   H57       1.0  0.8624500452352777  0.24508875498737834  0.91041702304193  1.0000
  H   H58       1.0  0.9519457718879423  0.2548892331519852  0.08945129249001847  1.0000
  H   H59       1.0  0.1375520247958164  0.7549117278733419  0.08958252600240263  1.0000
  H   H60       1.0  0.04806256609285953  0.7451142284565437  0.9105459540212096  1.0000
  H   H61       1.0  0.8292450753866091  0.28442723039113826  0.8126026110673763  1.0000
  H   H62       1.0  0.01650413127750744  0.21559200462475303  0.18728274487265403  1.0000
  H   H63       1.0  0.1707566071595537  0.7155745245094068  0.18739757527063722  1.0000
  H   H64       1.0  0.9834937901398745  0.7844110344930254  0.8127137499623558  1.0000
  H   H65       1.0  0.11600408388679286  0.1617405790144204  0.35715767654534153  1.0000
  H   H66       1.0  0.7590900519472612  0.3382925453028419  0.6430675503779995  1.0000
  H   H67       1.0  0.8839940875103948  0.8382586383979173  0.6428388925767621  1.0000
  H   H68       1.0  0.24090585451177293  0.6617053939337011  0.3569305635027575  1.0000
  H   H69       1.0  0.997684905218982  0.23580699273581732  0.29906209093363856  1.0000
  H   H70       1.0  0.6986142640664852  0.2642957595991859  0.7011565855183974  1.0000
  H   H71       1.0  0.0023084688210131734  0.7641926436824704  0.7009364717949111  1.0000
  H   H72       1.0  0.3013868409863675  0.7357021786318897  0.298841884822771  1.0000
  H   H73       1.0  0.6676368075639728  0.19825130868446905  0.3707329410513651  1.0000
  H   H74       1.0  0.29700442908353597  0.3019275018676879  0.6293079174042333  1.0000
  H   H75       1.0  0.33236002324706243  0.8017487480245505  0.6292671568901937  1.0000
  H   H76       1.0  0.7029947097648517  0.6980687192182417  0.3706972025907405  1.0000
  H   H77       1.0  0.801299283309163  0.1238726164481321  0.42416874663076953  1.0000
  H   H78       1.0  0.3774936499344719  0.37628808561262866  0.5759279964408606  1.0000
  H   H79       1.0  0.19870232360858608  0.8761270185994547  0.575830301817355  1.0000
  H   H80       1.0  0.622500470326152  0.6237106914553435  0.42407416728690356  1.0000
  H   H81       1.0  0.5752394427519647  0.48769427381378694  0.4349601790329772  1.0000
  H   H82       1.0  0.14069860918486643  0.012239885436052601  0.5650051515097587  1.0000
  H   H83       1.0  0.4247547356359788  0.5123057767592557  0.565042100960909  1.0000
  H   H84       1.0  0.859306882615094  0.987759325019617  0.43499388950005624  1.0000
  H   H85       1.0  0.65439596897086  0.4191141202497377  0.3692776370778859  1.0000
  H   H86       1.0  0.28538558069871556  0.08087840227864972  0.630726808496874  1.0000
  H   H87       1.0  0.34560081746454324  0.5808863529945185  0.6307253319580823  1.0000
  H   H88       1.0  0.714614731883195  0.9191212336841729  0.3692719148078894  1.0000
  H   H89       1.0  0.349453005062621  0.47044771198846297  0.22823842954242227  1.0000
  H   H90       1.0  0.12093184743833513  0.0297037806829863  0.7716478154236839  1.0000
  H   H91       1.0  0.6505472225174244  0.5295519133524281  0.7717640702144024  1.0000
  H   H92       1.0  0.8790761555301996  0.9702937299354489  0.22835172085135017  1.0000
  H   H93       1.0  0.27900344350501877  0.5375648459798369  0.3027588967553783  1.0000
  H   H94       1.0  0.9762394151626026  0.9624633829607419  0.6971074799242132  1.0000
  H   H95       1.0  0.7209937516657803  0.4624343578800847  0.6972424908739046  1.0000
  H   H96       1.0  0.023770616485386108  0.0375311555056399  0.3028920122644578  1.0000
  H   H97       1.0  0.16776325473404088  0.1730990789178222  0.10150976102426769  1.0000
  H   H98       1.0  0.06661410715059185  0.3269230116708998  0.898536505786538  1.0000
  H   H99       1.0  0.832237920323159  0.8269022447048188  0.8984927958119613  1.0000
  H   H100      1.0  0.9333884434949341  0.673079165350849  0.10146456547776248  1.0000
  H   H101      1.0  0.3226308904021025  0.2462419335837609  0.1592044293468575  1.0000
  H   H102      1.0  0.16366010053174307  0.2537720159131495  0.8408187585127321  1.0000
  H   H103      1.0  0.6773728151994404  0.7537581147033451  0.8407986615099645  1.0000
  H   H104      1.0  0.8363397026865087  0.7462276106179787  0.15918331815863954  1.0000
  H   H105      1.0  0.6256338714907841  0.15741079081801249  0.09364007932398272  1.0000
  H   H106      1.0  0.5323240692081298  0.34253586955534127  0.9063232425561338  1.0000
  H   H107      1.0  0.37436566612127103  0.8425913892244522  0.9063599185681427  1.0000
  H   H108      1.0  0.4676775183338505  0.6574633409905601  0.09367576713661664  1.0000
  H   H109      1.0  0.4539932903132994  0.08806079581702868  0.03752507147599002  1.0000
  H   H110      1.0  0.4169013285294695  0.41196043416293554  0.9624009126681373  1.0000
  H   H111      1.0  0.5460061272947171  0.9119396809077217  0.9624766596206697  1.0000
  H   H112      1.0  0.5831036964077683  0.5880387721720055  0.03759959348224843  1.0000
  H   H113      1.0  0.9685493727853186  0.5542221107027885  0.14328353356615517  1.0000
  H   H114      1.0  0.8255581179933528  0.9459133626510549  0.8568442522682176  1.0000
  H   H115      1.0  0.031450513560109486  0.445777948296481  0.8567157495215413  1.0000
  H   H116      1.0  0.1744456513595978  0.05408669360250679  0.1431560062495549  1.0000
  H   H117      1.0  0.9540794080843114  0.48484956103769156  0.21637968618684064  1.0000
  H   H118      1.0  0.7380279758124785  0.015305648604005698  0.7837579692363689  1.0000
  H   H119      1.0  0.045921326984704115  0.5151504955810964  0.7836204430717757  1.0000
  H   H120      1.0  0.2619766653892057  0.9846939860783481  0.21624120847091896  1.0000
  H   H121      1.0  0.7029540227156801  0.38148748348053363  0.07540929091017293  1.0000
  H   H122      1.0  0.6278682471444839  0.1186398899739558  0.9247320521010209  1.0000
  H   H123      1.0  0.2970445074171977  0.6185121466213205  0.924591516504826  1.0000
  H   H124      1.0  0.372129515517301  0.8813605968227235  0.07526609842777532  1.0000
  H   H125      1.0  0.7240367222974554  0.45488041821914754  0.011157875356666154  1.0000
  H   H126      1.0  0.7131655282800579  0.04522780899470998  0.9889764684057668  1.0000
  H   H127      1.0  0.2759631234217321  0.5451192136229466  0.988842313088675  1.0000
  H   H128      1.0  0.28683395307935905  0.9547726756964893  0.011022430351850717  1.0000
  H   H129      1.0  0.7360934635332512  0.3180309491633365  0.14369578039209333  1.0000
  H   H130      1.0  0.5922521818001198  0.18206529884920994  0.8563408977571213  1.0000
  H   H131      1.0  0.2639046597389268  0.6819695284766495  0.8563056255612125  1.0000
  H   H132      1.0  0.4077472589330497  0.8179347586848136  0.14365890635813372  1.0000
  H   H133      1.0  0.619616824228082  0.37139628793363505  0.15102139000870102  1.0000
  H   H134      1.0  0.4685848142348944  0.12864953029038873  0.8490270386640972  1.0000
  H   H135      1.0  0.38038176403212254  0.6286046156732823  0.8489795336724199  1.0000
  H   H136      1.0  0.5314176026548835  0.8713492533733386  0.15097277844419216  1.0000
  H   H137      1.0  0.5209731326040341  0.267440863280882  0.23682602011596293  1.0000
  H   H138      1.0  0.2840555932427479  0.23253649280712094  0.7631622447409114  1.0000
  H   H139      1.0  0.47902848806542386  0.7325604618070045  0.7631760156927001  1.0000
  H   H140      1.0  0.715945568062743  0.7674631407752202  0.23683732473477195  1.0000
  H   H141      1.0  0.47389776656931565  0.3132096981483912  0.17930179846993613  1.0000
  H   H142      1.0  0.2945672191850545  0.18677107502792717  0.8206864257127789  1.0000
  H   H143      1.0  0.5261029860007795  0.6867912048182915  0.82069935241244  1.0000
  H   H144      1.0  0.7054322021723393  0.8132285580044114  0.17931333964710217  1.0000
  H   H145      1.0  0.6340886636202256  0.34542137452704935  0.3099032756566089  1.0000
  H   H146      1.0  0.3244220523659464  0.15453991582442228  0.6900303105933645  1.0000
  H   H147      1.0  0.3659129589239214  0.6545795287146348  0.6900977772836683  1.0000
  H   H148      1.0  0.6755808895138885  0.8454601454650968  0.30996815764047625  1.0000
  H   H149      1.0  0.7385994353889629  0.3953099668770647  0.28866586402351396  1.0000
  H   H150      1.0  0.44996129431205373  0.10459165698443942  0.7114523184071756  1.0000
  H   H151      1.0  0.2614034408647755  0.6046905082922082  0.7113364194177622  1.0000
  H   H152      1.0  0.5500398882439086  0.8954079792533848  0.28854630695548883  1.0000
  H   H153      1.0  0.8095522568200763  0.2544998421424226  0.22263628677993103  1.0000
  H   H154      1.0  0.5869184795114889  0.24548560607515665  0.777378694176619  1.0000
  H   H155      1.0  0.1904476682769101  0.7455010658602247  0.7773630738185133  1.0000
  H   H156      1.0  0.41308264116776167  0.7545136003500164  0.22262178065670213  1.0000
  H   H157      1.0  0.8738936759323508  0.3135088777358916  0.2736360687122286  1.0000
  H   H158      1.0  0.6001356217200139  0.18649915974841488  0.726333578287047  1.0000
  H   H159      1.0  0.12610786723399775  0.6864907493452393  0.7263658120749383  1.0000
  H   H160      1.0  0.39986847324115615  0.8134991946526638  0.2736678924077012  1.0000
  H   H161      1.0  0.23161096355339333  0.0011108349589719  0.4502572022361662  1.0000
  H   H162      1.0  0.7814959298352945  0.49887127294562106  0.5496615854021557  1.0000
  H   H163      1.0  0.768386310995204  0.9988896450614959  0.5497433575462196  1.0000
  H   H164      1.0  0.21850167782028507  0.5011258178375543  0.4503362550836485  1.0000
  H   H165      1.0  0.025182329889247543  0.8798912509641639  0.9707615522974677  1.0000
  H   H166      1.0  0.05432767961501379  0.6201544757294286  0.029302940194845917  1.0000
  H   H167      1.0  0.9748153533947388  0.1201079596719623  0.029237426078225357  1.0000
  H   H168      1.0  0.9456727298457821  0.3798472827418421  0.9706959768867947  1.0000
  H   H169      1.0  0.026978003040298106  0.9415318536431485  0.9430315433987246  1.0000
  H   H170      1.0  0.0837585045453153  0.5584513644395557  0.05690818249765072  1.0000
  H   H171      1.0  0.9730213989413273  0.058467354887504513  0.05696818320578254  1.0000
  H   H172      1.0  0.916240999939262  0.441548701060917  0.943088789278562  1.0000
  H   H173      1.0  0.1220850235829899  0.9745854099190651  0.4795007494809838  1.0000
  H   H174      1.0  0.6426914996487554  0.5254301057054604  0.5204525401165087  1.0000
  H   H175      1.0  0.8779126965778588  0.0254150715666412  0.5204992892738503  1.0000
  H   H176      1.0  0.35730654799500877  0.4745682520815676  0.47954772794690836  1.0000
  C   C1        1.0  0.2883820922056444  0.04668124617806061  0.37826666607553255  1.0000
  C   C2        1.0  0.9104307857075326  0.45325963452069823  0.6216300571874598  1.0000
  C   C3        1.0  0.7116083269282142  0.9533196667660062  0.6217309395469641  1.0000
  C   C4        1.0  0.08956612635598289  0.546741276502665  0.3783682300388164  1.0000
  C   C5        1.0  0.374648503487613  0.0660022717784017  0.3408236598702317  1.0000
  C   C6        1.0  0.03416063091745498  0.43401024672569827  0.6591195755838086  1.0000
  C   C7        1.0  0.6253464167427154  0.9339931201730066  0.6591743194203801  1.0000
  C   C8        1.0  0.9658347661779204  0.5659876830791503  0.34088189166354255  1.0000
  C   C9        1.0  0.3372324193259715  0.1093726625877025  0.3039147841079881  1.0000
  C   C10       1.0  0.03377268033577246  0.3906800716352662  0.6960793165160268  1.0000
  C   C11       1.0  0.6627552542553018  0.8906252780195414  0.696082844053187  1.0000
  C   C12       1.0  0.9662251735808239  0.6093238032084686  0.30392197639481117  1.0000
  C   C13       1.0  0.41985130896547673  0.12845364765743741  0.27089857362451414  1.0000
  C   C14       1.0  0.14947436128112213  0.37164822109879475  0.729099562477174  1.0000
  C   C15       1.0  0.5801415419591507  0.871544289288849  0.7291003551100914  1.0000
  C   C16       1.0  0.850522543283631  0.6283543773093854  0.27090265622265264  1.0000
  C   C17       1.0  0.5414262308760271  0.10442023428294793  0.276166628039107  1.0000
  C   C18       1.0  0.2657199208047417  0.3956990799803535  0.7237720888899802  1.0000
  C   C19       1.0  0.45856322140490147  0.8955785558776768  0.7238308817486185  1.0000
  C   C20       1.0  0.7342810117714149  0.6043043779629045  0.27622646218559777  1.0000
  C   C21       1.0  0.5806403786488801  0.06104962371851029  0.31254943214800335  1.0000
  C   C22       1.0  0.26844186653510593  0.43906922410049987  0.6873959665524083  1.0000
  C   C23       1.0  0.41935287913646135  0.938947465689644  0.6874488980482951  1.0000
  C   C24       1.0  0.731556704224019  0.5609308331585225  0.31260393550494575  1.0000
  C   C25       1.0  0.4965854298650711  0.0416800380555458  0.3444612995826972  1.0000
  C   C26       1.0  0.15240827083305655  0.4583854687070925  0.6554663356288941  1.0000
  C   C27       1.0  0.5034031155649428  0.9583174809804972  0.6555352477679861  1.0000
  C   C28       1.0  0.8475912299021361  0.5416154404857919  0.3445326018840974  1.0000
  C   C29       1.0  0.6699049374973072  0.08909984493954679  0.20685342367141146  1.0000
  C   C30       1.0  0.4633952141871305  0.41096258441250916  0.7931679533723612  1.0000
  C   C31       1.0  0.3300870822048266  0.910898940735116  0.7931456805160408  1.0000
  C   C32       1.0  0.5366020797372428  0.5890383201096512  0.20683264516539882  1.0000
  C   C33       1.0  0.5956018174420165  0.04179542635829139  0.1784207261933943  1.0000
  C   C34       1.0  0.4174364580954233  0.45824840576550213  0.8215936929297386  1.0000
  C   C35       1.0  0.40439228531751314  0.9582025043617932  0.8215804159106029  1.0000
  C   C36       1.0  0.5825616670514436  0.5417516500282815  0.17840673015517441  1.0000
  C   C37       1.0  0.6374914488580786  0.009621119512786398  0.13458191898521227  1.0000
  C   C38       1.0  0.503105427109922  0.4903910771047464  0.8654837794958254  1.0000
  C   C39       1.0  0.36250912558065085  0.9903768066311117  0.8654208488355764  1.0000
  C   C40       1.0  0.4968914424526573  0.509609828607644  0.13451639595647444  1.0000
  C   C41       1.0  0.7537697629818751  0.023215022848681606  0.11946593759080323  1.0000
  C   C42       1.0  0.634488592439247  0.47678031244888797  0.8806585787403308  1.0000
  C   C43       1.0  0.24622785842540668  0.9767837579747933  0.8805348902555467  1.0000
  C   C44       1.0  0.36551001707142916  0.5232205938135124  0.11934140082777843  1.0000
  C   C45       1.0  0.8298236755567956  0.0694078693219495  0.15014185518228376  1.0000
  C   C46       1.0  0.6799239808909902  0.4305608838593642  0.8500500364865716  1.0000
  C   C47       1.0  0.1701727290177502  0.9305926104235169  0.8498588025422009  1.0000
  C   C48       1.0  0.3200754773432664  0.5694400200225616  0.14995078925244343  1.0000
  C   C49       1.0  0.7880142676331657  0.10250611703717277  0.19368299722357565  1.0000
  C   C50       1.0  0.5946325409458595  0.3974993911002612  0.8064489497511786  1.0000
  C   C51       1.0  0.2119773683334214  0.8974930969849098  0.8063147785207859  1.0000
  C   C52       1.0  0.4053677485108977  0.6025006640532807  0.19355170053498943  1.0000
  C   C53       1.0  0.7888315443589634  0.9902100943847073  0.06910406563854823  1.0000
  C   C54       1.0  0.719825524263463  0.5097951681769999  0.9310280338594482  1.0000
  C   C55       1.0  0.21116696639814572  0.0097891112154542  0.9308967030210766  1.0000
  C   C56       1.0  0.2801717909113748  0.4902057390006433  0.06897162056529992  1.0000
  C   C57       1.0  0.0010992351279242268  0.15127418623776379  0.5791532563506507  1.0000
  C   C58       1.0  0.42176965509938213  0.3486564368211019  0.42091884700611365  1.0000
  C   C59       1.0  0.9989040129843545  0.8487237486975941  0.4208463853047989  1.0000
  C   C60       1.0  0.5782266544709741  0.651341498569714  0.5790806340731081  1.0000
  C   C61       1.0  0.08113366941862665  0.19691395445070015  0.6079494758335002  1.0000
  C   C62       1.0  0.47298603616981433  0.3030954704671914  0.3920085060447178  1.0000
  C   C63       1.0  0.9188721073633062  0.8030831269953183  0.39205168271092833  1.0000
  C   C64       1.0  0.5270137920482866  0.696903315027015  0.6079906607768564  1.0000
  C   C65       1.0  0.05427025582155656  0.22693932344106563  0.6570630205642303  1.0000
  C   C66       1.0  0.39697787097006915  0.2731237608357659  0.34285873548218865  1.0000
  C   C67       1.0  0.9457377240218179  0.7730586063680958  0.34293844269220847  1.0000
  C   C68       1.0  0.6030224803633999  0.7268767241304345  0.6571400653333299  1.0000
  C   C69       1.0  0.9469424589194019  0.21078167568878575  0.6773970131687008  1.0000
  C   C70       1.0  0.26928460001506244  0.289271507509909  0.32257428988344833  1.0000
  C   C71       1.0  0.053066005287781944  0.7892171045889925  0.322604006570927  1.0000
  C   C72       1.0  0.7307149413463774  0.7107298288401508  0.6774237422718982  1.0000
  C   C73       1.0  0.8662632599648247  0.16535112647376593  0.6493962916717351  1.0000
  C   C74       1.0  0.21660710109030387  0.3346237023620446  0.3506814077056006  1.0000
  C   C75       1.0  0.13374137748748174  0.8346493519009994  0.35060485177232437  1.0000
  C   C76       1.0  0.7833927852551241  0.6653763566372249  0.6493178753820956  1.0000
  C   C77       1.0  0.8932472077141397  0.13590252209515796  0.6000808226187858  1.0000
  C   C78       1.0  0.29292270054546066  0.3640122814682414  0.4000318645409706  1.0000
  C   C79       1.0  0.10675650163678804  0.8640966824995361  0.39992030250125776  1.0000
  C   C80       1.0  0.7070771257979516  0.6359869258721673  0.5999682851489965  1.0000
  C   C81       1.0  0.9343998556293797  0.21736096695521204  0.7772040890283237  1.0000
  C   C82       1.0  0.15691870588058518  0.28269877674966176  0.22272358302664227  1.0000
  C   C83       1.0  0.06560613803547706  0.7826399403169688  0.22279553008844027  1.0000
  C   C84       1.0  0.8430835035303236  0.7173038339304726  0.777274271568537  1.0000
  C   C85       1.0  0.005118238359557335  0.16778324187520605  0.7872618385622658  1.0000
  C   C86       1.0  0.21754345794199986  0.3322845713003986  0.2126838821890189  1.0000
  C   C87       1.0  0.9948882377944133  0.8322189377118007  0.21273831990608022  1.0000
  C   C88       1.0  0.7824616869992767  0.6677163383522641  0.7873148907568394  1.0000
  C   C89       1.0  0.02665755839183252  0.1476764449700809  0.8422813082357834  1.0000
  C   C90       1.0  0.1840572889652776  0.35238332202074224  0.1576591310948956  1.0000
  C   C91       1.0  0.9733505589566676  0.8523240345046897  0.15771944343988054  1.0000
  C   C92       1.0  0.8159483809660557  0.6476188652577123  0.8423382929765069  1.0000
  C   C93       1.0  0.9754220344837066  0.1750135698808819  0.8868383496776744  1.0000
  C   C94       1.0  0.08838079572735318  0.32501183012042384  0.1130770045001768  1.0000
  C   C95       1.0  0.024583918554910194  0.824986910234131  0.11316217479673442  1.0000
  C   C96       1.0  0.9116244092159391  0.6749899311910994  0.8869209018434107  1.0000
  C   C97       1.0  0.9013001356289791  0.22355136358325475  0.8754882157743112  1.0000
  C   C98       1.0  0.02563320916200237  0.2764495639123509  0.12439879589880579  1.0000
  C   C99       1.0  0.09870357372195568  0.776447841011439  0.1245129093457322  1.0000
  C   C100      1.0  0.9743716507972946  0.7235534747499627  0.8755978595124246  1.0000
  C   C101      1.0  0.8820567601830973  0.2452885308287165  0.821120063035707  1.0000
  C   C102      1.0  0.060727885374120716  0.2547395331217714  0.17877758668939245  1.0000
  C   C103      1.0  0.11794528859753227  0.7547119493765208  0.1788804301216373  1.0000
  C   C104      1.0  0.9392734559374316  0.7452626554371519  0.8212193829794926  1.0000
  C   C105      1.0  0.004701355667201299  0.15207559160000983  0.9457820396661134  1.0000
  C   C106      1.0  0.05887157772684759  0.34793635983018584  0.054128318547519406  1.0000
  C   C107      1.0  0.9953107065655259  0.8479253149417046  0.054217837968970235  1.0000
  C   C108      1.0  0.9411346309462374  0.652068795114367  0.945870744009973  1.0000
  C   C109      1.0  0.01594539502477944  0.17103360605503326  0.3582349785924351  1.0000
  C   C110      1.0  0.6579257143955743  0.3290388036167755  0.6419509205036036  1.0000
  C   C111      1.0  0.984050955171824  0.8289647564929509  0.6417635971291489  1.0000
  C   C112      1.0  0.34207710748022174  0.670959554355022  0.3580492809347788  1.0000
  C   C113      1.0  0.9486653902519963  0.21250579015561746  0.32588643373976817  1.0000
  C   C114      1.0  0.6228518246856751  0.2876047699539157  0.6742980312600579  1.0000
  C   C115      1.0  0.05133194804799496  0.7874946978313062  0.6741112937035751  1.0000
  C   C116      1.0  0.37714755792016763  0.7123940140750448  0.32570165658907513  1.0000
  C   C117      1.0  0.8207378022764259  0.22247421302146364  0.32974332281498425  1.0000
  C   C118      1.0  0.4910519047195478  0.2776485562729293  0.6703780744701008  1.0000
  C   C119      1.0  0.17925724983495442  0.7775249941341756  0.6702568935000245  1.0000
  C   C120      1.0  0.5089556101357927  0.7223489475692945  0.3296238710585159  1.0000
  C   C121      1.0  0.7669926294764194  0.1914035280969628  0.36681827673493933  1.0000
  C   C122      1.0  0.4003023138676198  0.30875458812579376  0.633294284232143  1.0000
  C   C123      1.0  0.2330068306325329  0.8085969539387533  0.6331815661356899  1.0000
  C   C124      1.0  0.5996948019253878  0.6912433395735744  0.3667079312440293  1.0000
  C   C125      1.0  0.8405218003384219  0.15009762052964962  0.3961627285654715  1.0000
  C   C126      1.0  0.44461790768084347  0.3500383109960198  0.6039641233637242  1.0000
  C   C127      1.0  0.15947628793158936  0.849901164414554  0.6038366341403076  1.0000
  C   C128      1.0  0.5553818180343058  0.6499596175283527  0.39603779828615154  1.0000
  C   C129      1.0  0.5254608653385375  0.48271726445902635  0.38912963415836543  1.0000
  C   C130      1.0  0.13666105039398233  0.0172462513895155  0.6108254239306206  1.0000
  C   C131      1.0  0.47453418302345796  0.5172827863890178  0.6108725478934147  1.0000
  C   C132      1.0  0.8633421802172097  0.9827508371979476  0.3891731961010621  1.0000
  C   C133      1.0  0.5707087836201125  0.4437796341561011  0.35137280855802544  1.0000
  C   C134      1.0  0.21954165008255436  0.0562109550764589  0.6485933801144768  1.0000
  C   C135      1.0  0.4292866503521253  0.5562195664983277  0.6486297190684667  1.0000
  C   C136      1.0  0.7804603618212126  0.9437882542791982  0.3514060526637338  1.0000
  C   C137      1.0  0.5066875688836558  0.43826248638431053  0.292423245801352  1.0000
  C   C138      1.0  0.21421020301436763  0.061795306744720294  0.7075154594363512  1.0000
  C   C139      1.0  0.4933105137622746  0.5617375640985003  0.7075790655095844  1.0000
  C   C140      1.0  0.7857913245255901  0.9382030521423131  0.29248441685867027  1.0000
  C   C141      1.0  0.399846116749778  0.4726089657209728  0.27397549926598697  1.0000
  C   C142      1.0  0.12572819756826456  0.027478352161430995  0.7259207898867502  1.0000
  C   C143      1.0  0.600151037794774  0.5273898109817664  0.7260267937209337  1.0000
  C   C144      1.0  0.8742754767804896  0.9725191597374803  0.27407829198575945  1.0000
  C   C145      1.0  0.3614534956712916  0.5100758887600989  0.3150008876216503  1.0000
  C   C146      1.0  0.04648822042835822  0.9899654522033926  0.6848981299758066  1.0000
  C   C147      1.0  0.6385432538872492  0.489923313634577  0.685001021035184  1.0000
  C   C148      1.0  0.9535175988545105  0.0100316345535987  0.3151011403425913  1.0000
  C   C149      1.0  0.27022056041483467  0.171229221032803  0.10114243438936651  1.0000
  C   C150      1.0  0.1694158289930669  0.3287847198006872  0.8988929466576111  1.0000
  C   C151      1.0  0.729781077755703  0.828772950402978  0.8988606230430634  1.0000
  C   C152      1.0  0.8305867041513649  0.6712166108731736  0.10110710298292257  1.0000
  C   C153      1.0  0.3578855446405028  0.21188495758114806  0.13369387807235714  1.0000
  C   C154      1.0  0.22445948703383323  0.2881199917180979  0.866340189196123  1.0000
  C   C155      1.0  0.6421142973293071  0.7881155179533579  0.8663082761097628  1.0000
  C   C156      1.0  0.7755420967587628  0.7118800625202084  0.1336607862334063  1.0000
  C   C157      1.0  0.4882734672288791  0.2072108226888005  0.13126020473369243  1.0000
  C   C158      1.0  0.3572414705749906  0.2927711528780462  0.8687383689944923  1.0000
  C   C159      1.0  0.5117268416036537  0.7927896569664342  0.8687404843078497  1.0000
  C   C160      1.0  0.6427588207564554  0.7072284804292936  0.13126129842328998  1.0000
  C   C161      1.0  0.5247239973860971  0.16236004560062156  0.09592693264424673  1.0000
  C   C162      1.0  0.42914161839576787  0.33761724089960404  0.9040570004937295  1.0000
  C   C163      1.0  0.47527418588809683  0.8376412836982253  0.9040736067067883  1.0000
  C   C164      1.0  0.5708616684680621  0.6623815430391246  0.0959427186724682  1.0000
  C   C165      1.0  0.43058242315981937  0.1238159094984539  0.06533521250769073  1.0000
  C   C166      1.0  0.3656261614374615  0.3761899312382867  0.9346420715284013  1.0000
  C   C167      1.0  0.5694179225495687  0.8761858410063611  0.9346665369129924  1.0000
  C   C168      1.0  0.6343776466670406  0.6238109740186459  0.06535826450012652  1.0000
  C   C169      1.0  0.9101306445472375  0.5153571786004818  0.13057483140934073  1.0000
  C   C170      1.0  0.7798126634042859  0.984767302958062  0.8695562058143126  1.0000
  C   C171      1.0  0.08986887368904196  0.48464457694030477  0.8694251277274105  1.0000
  C   C172      1.0  0.2201893853763437  0.015233177247175397  0.13044428734303182  1.0000
  C   C173      1.0  0.9025532707188973  0.4768549696705405  0.17095747603542585  1.0000
  C   C174      1.0  0.7318522763259877  0.0232726817953477  0.8291766886112556  1.0000
  C   C175      1.0  0.09744748372589379  0.5231455114499326  0.8290426919785645  1.0000
  C   C176      1.0  0.26815192113813424  0.9767265295755582  0.17082202725519835  1.0000
  C   C177      1.0  0.8233267307570955  0.4281826554456529  0.15256910957661063  1.0000
  C   C178      1.0  0.6709624969027032  0.07192937970705061  0.8475589034859894  1.0000
  C   C179      1.0  0.17667143126663376  0.5718186711977111  0.8474323738874361  1.0000
  C   C180      1.0  0.3290382787925595  0.9280711040689127  0.15244032041498912  1.0000
  C   C181      1.0  0.7607478143147617  0.41933571586098134  0.09361736575356623  1.0000
  C   C182      1.0  0.6673989363420957  0.0807763286730605  0.9065202315854891  1.0000
  C   C183      1.0  0.23924946023383606  0.5806647641594866  0.9063831940288197  1.0000
  C   C184      1.0  0.33260265307457365  0.9192224600266315  0.09347779523887571  1.0000
  C   C185      1.0  0.7743546907729525  0.46044492638220896  0.0567441310956909  1.0000
  C   C186      1.0  0.7178774785201439  0.03966753064427309  0.9433852568366631  1.0000
  C   C187      1.0  0.22564345187500118  0.5395559757594698  0.9432573136129819  1.0000
  C   C188      1.0  0.2821224465768424  0.960333377358374  0.056614103761781095  1.0000
  C   C189      1.0  0.7072351035372222  0.3507536304051159  0.17402456297838145  1.0000
  C   C190      1.0  0.5331766150571866  0.1492980467525342  0.8260245737206233  1.0000
  C   C191      1.0  0.2927647596830522  0.6492468477848732  0.8259766470907194  1.0000
  C   C192      1.0  0.46682365689848376  0.8507011620531203  0.17397505494178497  1.0000
  C   C193      1.0  0.5523737303933061  0.2869657910135929  0.20147556712358752  1.0000
  C   C194      1.0  0.35086014431971785  0.21302002008755488  0.798506741402406  1.0000
  C   C195      1.0  0.4476283165126347  0.7130351110378542  0.7985259089021498  1.0000
  C   C196      1.0  0.6491406101250731  0.7869804610329251  0.2014934266115773  1.0000
  C   C197      1.0  0.6520496029895142  0.3675887235520676  0.27332326166041554  1.0000
  C   C198      1.0  0.378762902948715  0.13239992065390987  0.7266836062618225  1.0000
  C   C199      1.0  0.3479524420417305  0.6324126003455817  0.7266791972337074  1.0000
  C   C200      1.0  0.6212386652174827  0.8675988653902991  0.27331536467555406  1.0000
  C   C201      1.0  0.7866809466239602  0.2870239631201486  0.2547194383117742  1.0000
  C   C202      1.0  0.5318938774486454  0.21298193209431557  0.7452874056978516  1.0000
  C   C203      1.0  0.21331766288671625  0.7129769431422516  0.745280541256328  1.0000
  C   C204      1.0  0.4681094075404957  0.7870172736906227  0.2547132963367247  1.0000
  C   C205      1.0  0.030826393550199737  0.12044076236607279  0.5261214872521123  1.0000
  C   C206      1.0  0.5046681934695698  0.3794940812167979  0.47393771245948824  1.0000
  C   C207      1.0  0.9691734346679085  0.8795580231281335  0.473877679569462  1.0000
  C   C208      1.0  0.4953306835219991  0.6205038496880633  0.5260633630194748  1.0000
  C   C209      1.0  0.6751175025154906  0.3236296738080355  0.22574868383644292  1.0000
  C   C210      1.0  0.4493391245665493  0.1763636253092002  0.7742455122465516  1.0000
  C   C211      1.0  0.32488454439045006  0.6763712282434042  0.7742527921892943  1.0000
  C   C212      1.0  0.5506619961127015  0.8236355811159727  0.22575496258677671  1.0000
  N   N1        1.0  0.9634091339319468  0.1393027391603994  0.39191297933702884  1.0000
  N   N2        1.0  0.5717781569480778  0.3607663829615149  0.6082167686992578  1.0000
  N   N3        1.0  0.036589440576563076  0.8606964744062111  0.6080849569835537  1.0000
  N   N4        1.0  0.42821861573562353  0.6392324002424347  0.3917832129761721  1.0000
  N   N5        1.0  0.3048555698434541  0.1278142633849413  0.06784810261463291  1.0000
  N   N6        1.0  0.2374084996349237  0.3721928738931339  0.932170710682307  1.0000
  N   N7        1.0  0.6951451808519522  0.8721870614279439  0.932154031136136  1.0000
  N   N8        1.0  0.7625957734576118  0.6278084573307298  0.06782914307402887  1.0000
  N   N9        1.0  0.4224518786896496  0.5153450737869035  0.37198500480329955  1.0000
  N   N10       1.0  0.05071181612805018  0.9846383930266353  0.6279464588903778  1.0000
  N   N11       1.0  0.577543152171259  0.48465413071324553  0.6280161556247137  1.0000
  N   N12       1.0  0.949291455109389  0.015359122717995902  0.3720512557836599  1.0000
  N   N13       1.0  0.8453890404030135  0.5083387720893882  0.07413321147432585  1.0000
  N   N14       1.0  0.7714758507720277  0.9917522334007669  0.9259878609711479  1.0000
  N   N15       1.0  0.15461045845748342  0.4916625589497058  0.9258667089070514  1.0000
  N   N16       1.0  0.22852789920514738  0.0082473983510951  0.07401235879125072  1.0000
  O   O1        1.0  0.16918822944428769  0.0102282564369958  0.476774672681934  1.0000
  O   O2        1.0  0.6924692573218535  0.4897767569936562  0.5231820355954753  1.0000
  O   O3        1.0  0.8308099538299131  0.9897730728618512  0.523225866669094  1.0000
  O   O4        1.0  0.30752660663624437  0.5102211769319211  0.4768179665113053  1.0000
  O   O5        1.0  0.1944377404712796  0.07983176567925199  0.3828537616673486  1.0000
  O   O6        1.0  0.8119079721749429  0.42010143284431223  0.6170944869252253  1.0000
  O   O7        1.0  0.805562064621661  0.9201674390056738  0.6171473321356302  1.0000
  O   O8        1.0  0.1880871399384531  0.5798986259701877  0.3829048627875125  1.0000
  O   O9        1.0  0.3141924401562192  0.0010356300179097003  0.40240329629524757  1.0000
  O   O10       1.0  0.9120238484685005  0.4988544379017484  0.597438120044636  1.0000
  O   O11       1.0  0.6857994632912535  0.9989606086466267  0.5975955753599607  1.0000
  O   O12       1.0  0.08797381918909511  0.5011435045402877  0.4025588538389044  1.0000
  O   O13       1.0  0.13071466861765668  0.1331695479415984  0.5086593468104468  1.0000
  O   O14       1.0  0.6220347309351338  0.3667547368596332  0.4913373338408036  1.0000
  O   O15       1.0  0.8692831134199112  0.8668313633567664  0.49133884247373066  1.0000
  O   O16       1.0  0.3779617823647142  0.6332402152071877  0.5086660754883212  1.0000
  O   O17       1.0  0.9510877733844366  0.08117759297117288  0.4972026789373061  1.0000
  O   O18       1.0  0.4539677361944996  0.4187809253111324  0.5028744291667167  1.0000
  O   O19       1.0  0.04891077799891264  0.9188220397861573  0.502797184364674  1.0000
  O   O20       1.0  0.5460320901489126  0.5812182820292762  0.4971257205232503  1.0000
  O   O21       1.0  0.11186486155605024  0.1259447102198763  0.9572036646227104  1.0000
  O   O22       1.0  0.1546516344042672  0.37409879053832645  0.0427724587778826  1.0000
  O   O23       1.0  0.8881416514747825  0.8740587402167108  0.04279755422477655  1.0000
  O   O24       1.0  0.845355424867094  0.6259059401795355  0.9572264670821369  1.0000
  O   O25       1.0  0.9247075515763328  0.1593050873606003  0.9783349490388318  1.0000
  O   O26       1.0  0.9463883948210706  0.3406640144655384  0.021511443386913246  1.0000
  O   O27       1.0  0.07529534592787707  0.8406953904641553  0.021666390289432503  1.0000
  O   O28       1.0  0.05361489394804424  0.6593441097005838  0.9784887053120529  1.0000
  O   O29       1.0  0.8998224491135501  0.9964779553833694  0.05709150269233734  1.0000
  O   O30       1.0  0.8428327759386461  0.5035368027677549  0.9430910458180222  1.0000
  O   O31       1.0  0.10017518979481815  0.003521671787993299  0.9429103467777722  1.0000
  O   O32       1.0  0.15716451798572706  0.4964641017544055  0.056909552719737605  1.0000
  O   O33       1.0  0.7036454863439515  0.9565834832062803  0.036207639204981504  1.0000
  O   O34       1.0  0.6674344875530734  0.5434279209992284  0.9638812601444117  1.0000
  O   O35       1.0  0.2963514044690996  0.043417425161599986  0.9637915921343067  1.0000
  O   O36       1.0  0.33256432133944  0.45657596474143947  0.03611615837226622  1.0000
  O   O37       1.0  0.9747021580419711  0.9059236439702403  0.9413123627513897  1.0000
  O   O38       1.0  0.03329047592346508  0.5940719765894117  0.0587224675429141  1.0000
  O   O39       1.0  0.025294267783038983  0.09407683843070908  0.058687350860075996  1.0000
  O   O40       1.0  0.9667099372867156  0.40592893818944725  0.9412744838019478  1.0000
  O   O41       1.0  0.917863706811481  0.242657744696686  0.7252156294363132  1.0000
  O   O42       1.0  0.1923320166502904  0.257424852383636  0.2747352344824776  1.0000
  O   O43       1.0  0.08214485427458841  0.757343158089533  0.2747855840801848  1.0000
  O   O44       1.0  0.807668009074959  0.7425773344350404  0.7252623541560653  1.0000
  O   O45       1.0  0.627004013956693  0.1261747403165359  0.24625891680423717  1.0000
  O   O46       1.0  0.38124449108502745  0.37394074845537517  0.7536419390669664  1.0000
  O   O47       1.0  0.37298846698408994  0.8738253150174701  0.7537416708478092  1.0000
  O   O48       1.0  0.6187528647160577  0.6260605858794364  0.24635681000014395  1.0000
  O   O49       1.0  0.8090600386656773  0.39289595526689425  0.19343016888257844  1.0000
  O   O50       1.0  0.6157481256800991  0.10717711665432007  0.8066755237928191  1.0000
  O   O51       1.0  0.1909398439303657  0.6071049474247872  0.8065710799418966  1.0000
  O   O52       1.0  0.3842552211857466  0.8928225189432692  0.19332332877110764  1.0000
  O   O53       1.0  0.584235300278145  0.2434394485504967  0.16098421308826263  1.0000
  O   O54       1.0  0.4233476922263932  0.25651536390500235  0.8389784467321987  1.0000
  O   O55       1.0  0.4157649873039159  0.7565610284492548  0.8390174200662982  1.0000
  O   O56       1.0  0.5766521359917078  0.7434834215891967  0.16102072008937543  1.0000
  O   O57       1.0  0.5421557475681452  0.4015972593123322  0.2515383859504254  1.0000
  O   O58       1.0  0.2903871999785323  0.09850375624024818  0.748409751602985  1.0000
  O   O59       1.0  0.4578476130494095  0.5984040663255641  0.7484634539740399  1.0000
  O   O60       1.0  0.7096140038278945  0.9014958826530588  0.25158792964666793  1.0000
  O   O61       1.0  0.7428054786601308  0.2603639411838898  0.2995601827048233  1.0000
  O   O62       1.0  0.44318005325573046  0.23971455936323594  0.7004736614888856  1.0000
  O   O63       1.0  0.2571930533474427  0.7396352670717616  0.7004396418417825  1.0000
  O   O64       1.0  0.5568210092961935  0.7602833735568736  0.29952669707832064  1.0000
