data_image0
_chemical_formula_structural       Zn16H176C204N32O72
_chemical_formula_sum              "Zn16 H176 C204 N32 O72"
_cell_length_a       16.020397068410702
_cell_length_b       21.410022679256034
_cell_length_c       29.92909952006963
_cell_angle_alpha    89.99998224312804
_cell_angle_beta     90.00024677538505
_cell_angle_gamma    97.81540647257994

_space_group_name_H-M_alt    "P 1"
_space_group_IT_number       1

loop_
  _space_group_symop_operation_xyz
  'x, y, z'

loop_
  _atom_site_type_symbol
  _atom_site_label
  _atom_site_symmetry_multiplicity
  _atom_site_fract_x
  _atom_site_fract_y
  _atom_site_fract_z
  _atom_site_occupancy
  Zn  Zn1       1.0  0.3298442003919675  0.5633320386852319  0.22720895987086456  1.0000
  Zn  Zn2       1.0  0.6701537225822635  0.9366685278139639  0.727209654305554  1.0000
  Zn  Zn3       1.0  0.6701567401860589  0.436669048025621  0.7727907653139497  1.0000
  Zn  Zn4       1.0  0.3298440135792902  0.0633320623114386  0.2727920756135163  1.0000
  Zn  Zn5       1.0  0.3473762265552765  0.41382124500591283  0.21789364739024109  1.0000
  Zn  Zn6       1.0  0.6526254830191792  0.0861770310901235  0.7178917037142512  1.0000
  Zn  Zn7       1.0  0.6526229177854505  0.5861802980308397  0.7821070801614027  1.0000
  Zn  Zn8       1.0  0.34737522053101344  0.9138226413508194  0.2821073532244753  1.0000
  Zn  Zn9       1.0  0.3768670344936211  0.4818270889338476  0.3108012471404678  1.0000
  Zn  Zn10      1.0  0.623128861972802  0.0181692863432801  0.8108002524281375  1.0000
  Zn  Zn11      1.0  0.6231294515000843  0.5181734911264612  0.6892001486541729  1.0000
  Zn  Zn12      1.0  0.37686894620661365  0.9818280088515011  0.1891998068764593  1.0000
  Zn  Zn13      1.0  0.19164481422708954  0.45417799206644816  0.2739125227607317  1.0000
  Zn  Zn14      1.0  0.8083560276370321  0.04582359011838119  0.7739112810114932  1.0000
  Zn  Zn15      1.0  0.8083572975144763  0.5458226332864198  0.7260885389174092  1.0000
  Zn  Zn16      1.0  0.19164170851232146  0.9541770000064531  0.22608744180072896  1.0000
  H   H1        1.0  0.40172781125349394  0.8683895757715588  0.4186748439718571  1.0000
  H   H2        1.0  0.5982725202021869  0.6316087162155739  0.9186767746683839  1.0000
  H   H3        1.0  0.5982700829193845  0.13161195720011418  0.5813255494553573  1.0000
  H   H4        1.0  0.4017293545088378  0.3683904948672562  0.08132295051770909  1.0000
  H   H5        1.0  0.8019980520797464  0.789500687374705  0.1565528269762027  1.0000
  H   H6        1.0  0.19800070584160784  0.7105008052668467  0.6565518129141594  1.0000
  H   H7        1.0  0.19800351358423285  0.21050040436877984  0.8434475664552962  1.0000
  H   H8        1.0  0.801998826555888  0.2894993285325852  0.34344858051510124  1.0000
  H   H9        1.0  0.1777814645348528  0.3726772102667509  0.5675691955158796  1.0000
  H   H10       1.0  0.8222137227340413  0.1273266156311834  0.06756728393679619  1.0000
  H   H11       1.0  0.8222197920875021  0.6273257621376372  0.43243320265295887  1.0000
  H   H12       1.0  0.17778206613823508  0.872677254326284  0.9324307706268653  1.0000
  H   H13       1.0  0.9135125272808653  0.7537674782080329  0.1661693529613686  1.0000
  H   H14       1.0  0.08648615064642232  0.7462330752305276  0.6661694105488963  1.0000
  H   H15       1.0  0.08648638003338505  0.24623265055888774  0.8338310404671672  1.0000
  H   H16       1.0  0.9135168231980874  0.2537689694243781  0.3338303146381563  1.0000
  H   H17       1.0  0.40565297547038875  0.9257442317829072  0.4773892717109192  1.0000
  H   H18       1.0  0.5943458780672163  0.5742535959277291  0.9773895350611281  1.0000
  H   H19       1.0  0.5943496823460422  0.074255927179216  0.5226117899679039  1.0000
  H   H20       1.0  0.40565177908054323  0.42574652277416186  0.0226108583659723  1.0000
  H   H21       1.0  0.11599709774792194  0.3274121735353858  0.6220632511174742  1.0000
  H   H22       1.0  0.8839974325073928  0.172588839436763  0.1220644794019634  1.0000
  H   H23       1.0  0.8840011054760668  0.6725874787758243  0.37793747643328146  1.0000
  H   H24       1.0  0.11599796831488622  0.8274164397583588  0.8779355798989954  1.0000
  H   H25       1.0  0.6227000145127307  0.8985476923019105  0.6121520157431917  1.0000
  H   H26       1.0  0.37729563884182243  0.601448582764327  0.11215008605829267  1.0000
  H   H27       1.0  0.377303735450738  0.1014515338785813  0.3878483776910215  1.0000
  H   H28       1.0  0.6226942012612968  0.39854958985380756  0.8878473002531564  1.0000
  H   H29       1.0  0.4804496053736501  0.05345900579088438  0.5987903644234079  1.0000
  H   H30       1.0  0.5195505918651336  0.44653969157310774  0.0987926981261182  1.0000
  H   H31       1.0  0.5195542235927705  0.9465406918126218  0.4012086925189209  1.0000
  H   H32       1.0  0.4804474603258413  0.5534627842451413  0.9012080294241682  1.0000
  H   H33       1.0  0.5299132154324443  0.7875319042507912  0.2651301202726586  1.0000
  H   H34       1.0  0.4700848501918389  0.7124639674150899  0.7651304014928327  1.0000
  H   H35       1.0  0.4700861659279739  0.21247105305549496  0.734869270787172  1.0000
  H   H36       1.0  0.5299145172173712  0.2875314571848193  0.2348729990435885  1.0000
  H   H37       1.0  0.2804818406506869  0.4065495310579905  0.5199327284127904  1.0000
  H   H38       1.0  0.7195168616832393  0.09345148348058528  0.0199319237680982  1.0000
  H   H39       1.0  0.7195221463419731  0.5934511093924825  0.4800686673904976  1.0000
  H   H40       1.0  0.2804830657507012  0.9065510074348848  0.9800671331694344  1.0000
  H   H41       1.0  0.364782123945581  0.8260635348408912  0.352870955097714  1.0000
  H   H42       1.0  0.6352226743077481  0.6739347724755688  0.8528716254151475  1.0000
  H   H43       1.0  0.6352162372924398  0.17393706031670317  0.647129104207167  1.0000
  H   H44       1.0  0.36478295090003615  0.3260644688022154  0.1471274315292987  1.0000
  H   H45       1.0  0.07444213539189802  0.38363088961940406  0.39520805922412444  1.0000
  H   H46       1.0  0.9255542228127  0.11637163607391438  0.8952090773341581  1.0000
  H   H47       1.0  0.925558266103124  0.6163744298361351  0.6047936706975109  1.0000
  H   H48       1.0  0.07444421045402555  0.8836256641535627  0.1047919843401033  1.0000
  H   H49       1.0  0.09197500905765574  0.26565865237434844  0.6823356748945385  1.0000
  H   H50       1.0  0.9080193781202939  0.23433861204672715  0.1823376135557737  1.0000
  H   H51       1.0  0.9080249834225996  0.7343367772575036  0.3176647185357595  1.0000
  H   H52       1.0  0.09198031229665564  0.7656624645993445  0.8176634481195322  1.0000
  H   H53       1.0  0.27090110340178347  0.6866048397908315  0.2295875001775727  1.0000
  H   H54       1.0  0.729096206801728  0.8133919562233843  0.7295880229027033  1.0000
  H   H55       1.0  0.7290999882065351  0.3133934234128474  0.7704115567617577  1.0000
  H   H56       1.0  0.2709001141820053  0.1866039146364002  0.2704110340313832  1.0000
  H   H57       1.0  0.32753784874069697  0.4330424577392336  0.4421669921026634  1.0000
  H   H58       1.0  0.6724609237018555  0.06696104368889169  0.9421671030397505  1.0000
  H   H59       1.0  0.6724638029153951  0.5669628717810724  0.5578334013284802  1.0000
  H   H60       1.0  0.3275383786556178  0.9330414421943873  0.0578336245119715  1.0000
  H   H61       1.0  0.5888788613317147  0.9076218653713967  0.1515006290508438  1.0000
  H   H62       1.0  0.4111204086485999  0.592382925318354  0.6514967906142389  1.0000
  H   H63       1.0  0.41112935719710464  0.09238540016739448  0.8485014350025819  1.0000
  H   H64       1.0  0.5888759983380825  0.40761718331876307  0.3485049393033464  1.0000
  H   H65       1.0  0.34617755851042636  0.7337538589634534  0.3022185676359754  1.0000
  H   H66       1.0  0.6538223742092556  0.7662439225118122  0.8022185927742882  1.0000
  H   H67       1.0  0.6538225989716651  0.2662462798685468  0.6977821599169899  1.0000
  H   H68       1.0  0.3461764540912001  0.23375573483158968  0.19778046416228526  1.0000
  H   H69       1.0  0.8760822213173755  0.6349388825768826  0.2570972169452332  1.0000
  H   H70       1.0  0.12391571408673491  0.8650640473291058  0.7570953305831479  1.0000
  H   H71       1.0  0.12391450170280653  0.36506311175327255  0.7429045129725154  1.0000
  H   H72       1.0  0.8760864836361009  0.13494081580007838  0.24290305811077664  1.0000
  H   H73       1.0  0.6591452576490866  0.736470797547028  0.2515344764822771  1.0000
  H   H74       1.0  0.3408516055302898  0.7635260017497457  0.7515361193216705  1.0000
  H   H75       1.0  0.34085404469889374  0.263531688335803  0.7484639122085639  1.0000
  H   H76       1.0  0.6591446364599777  0.23646939768747893  0.2484666129651814  1.0000
  H   H77       1.0  0.42588408059063465  0.6182702841598839  0.4070173478283365  1.0000
  H   H78       1.0  0.5741101354833661  0.8817256010011074  0.9070158278451572  1.0000
  H   H79       1.0  0.5741154518095685  0.38172984963966883  0.592983713846891  1.0000
  H   H80       1.0  0.4258840011968133  0.11827213542147771  0.092982226717254  1.0000
  H   H81       1.0  0.5450672831042739  0.8439318511763431  0.5477808006243378  1.0000
  H   H82       1.0  0.45492581473769905  0.6560634415577978  0.047777367618103  1.0000
  H   H83       1.0  0.4549313871862141  0.1560668633208522  0.4522199269270643  1.0000
  H   H84       1.0  0.5450651175124579  0.3439337982787051  0.9522193504487362  1.0000
  H   H85       1.0  0.9923499181173201  0.19266185849831163  0.7279338161186286  1.0000
  H   H86       1.0  0.007648675476140509  0.3073396911695098  0.22793299448585458  1.0000
  H   H87       1.0  0.007650936478071969  0.8073349904361536  0.27206824792742157  1.0000
  H   H88       1.0  0.9923495347275165  0.6926637274950662  0.7720667306955632  1.0000
  H   H89       1.0  0.026053403330827517  0.35436324178238005  0.4729487350719026  1.0000
  H   H90       1.0  0.9739498294245196  0.14563559733525722  0.9729488561234945  1.0000
  H   H91       1.0  0.9739505836631822  0.64563739866815  0.5270529948543654  1.0000
  H   H92       1.0  0.026053913553852222  0.8543598624916127  0.0270512031881438  1.0000
  H   H93       1.0  0.44211267653250286  0.7103743997081152  0.4589213572655736  1.0000
  H   H94       1.0  0.5578885275016462  0.7896234411354542  0.958919819652955  1.0000
  H   H95       1.0  0.5578877179733585  0.28962715339361006  0.5410790361645255  1.0000
  H   H96       1.0  0.4421133472012428  0.21037576994699947  0.04107790079524419  1.0000
  H   H97       1.0  0.41838006763941143  0.7338907091177731  0.1401101986391282  1.0000
  H   H98       1.0  0.5816179248217495  0.7661070059084522  0.6401103914201726  1.0000
  H   H99       1.0  0.5816214120270403  0.26610614484863493  0.859888858300792  1.0000
  H   H100      1.0  0.41837847517306415  0.2338893363747161  0.35988933375991644  1.0000
  H   H101      1.0  0.3961347422993101  0.8137557895110774  0.1437013182274711  1.0000
  H   H102      1.0  0.6038661746728808  0.6862443041221127  0.6437019135932331  1.0000
  H   H103      1.0  0.6038667373671347  0.18624106445533067  0.8562977387124562  1.0000
  H   H104      1.0  0.39613444986893864  0.31375489689556707  0.3562971433454578  1.0000
  H   H105      1.0  0.33295929793456497  0.7583750343398138  0.1090804302370714  1.0000
  H   H106      1.0  0.6670403970400757  0.7416231554511511  0.6090801570245714  1.0000
  H   H107      1.0  0.6670424187583565  0.24162323389644055  0.8909189608259638  1.0000
  H   H108      1.0  0.33295811522553026  0.2583746161991485  0.3909185657888513  1.0000
  H   H109      1.0  0.5101256885246032  0.6360521738019216  0.19673112970188808  1.0000
  H   H110      1.0  0.48987839603636746  0.8639493743221607  0.6967324263856154  1.0000
  H   H111      1.0  0.4898779103977234  0.3639498758852397  0.8032672589939621  1.0000
  H   H112      1.0  0.5101199652016534  0.13605122083543358  0.30326763291925835  1.0000
  H   H113      1.0  0.7172545328515696  0.8570157061460292  0.1370319208704487  1.0000
  H   H114      1.0  0.28274689004342696  0.6429914512762522  0.6370297802523979  1.0000
  H   H115      1.0  0.2827548568231677  0.14299109803396698  0.8629671360775288  1.0000
  H   H116      1.0  0.7172535044705629  0.3570101018258498  0.36297261791560226  1.0000
  H   H117      1.0  0.4054422477089688  0.0014084350621672997  0.5331177430387299  1.0000
  H   H118      1.0  0.5945560085422272  0.49858928450918655  0.0331185679175192  1.0000
  H   H119      1.0  0.5945599430301273  0.9985926617134522  0.4668806456555998  1.0000
  H   H120      1.0  0.4054419576444417  0.5014089535316656  0.9668791525262748  1.0000
  H   H121      1.0  0.7913851506646451  0.2190750262172186  0.6379596082941319  1.0000
  H   H122      1.0  0.2086124619974116  0.2809175423867458  0.13796293113686883  1.0000
  H   H123      1.0  0.20861648003887726  0.7809190042423351  0.36204045101521837  1.0000
  H   H124      1.0  0.791386373288134  0.7190858813102848  0.8620364599222867  1.0000
  H   H125      1.0  0.14427278503833213  0.6523129403942604  0.17153449198286103  1.0000
  H   H126      1.0  0.8557217908750091  0.8476852277655809  0.6715346311111148  1.0000
  H   H127      1.0  0.8557247140899663  0.34768623546098343  0.8284652331981873  1.0000
  H   H128      1.0  0.1442731219363296  0.1523096901831664  0.3284670988053122  1.0000
  H   H129      1.0  0.9839265571548951  0.5641622725219193  0.2745004785738273  1.0000
  H   H130      1.0  0.01607370374607349  0.9358387984147641  0.774499998922181  1.0000
  H   H131      1.0  0.016073528302563034  0.43584116124038996  0.7255002489786972  1.0000
  H   H132      1.0  0.9839264537346681  0.06416134041717207  0.22550039450779738  1.0000
  H   H133      1.0  0.03826444449755685  0.7236786922349268  0.1537389720263462  1.0000
  H   H134      1.0  0.9617340535717034  0.7763213850708579  0.6537383685898773  1.0000
  H   H135      1.0  0.9617336797126371  0.2763204886527646  0.846260419032447  1.0000
  H   H136      1.0  0.0382664919658069  0.22367734452375018  0.34626169071771773  1.0000
  H   H137      1.0  0.6311019870202799  0.6538450140130933  0.16324846906780263  1.0000
  H   H138      1.0  0.36890018068966424  0.8461541542443957  0.663249824709716  1.0000
  H   H139      1.0  0.3689000457047769  0.34615513991612795  0.8367505878724087  1.0000
  H   H140      1.0  0.6310971674137633  0.15384784511827115  0.3367519052087573  1.0000
  H   H141      1.0  0.6532593320348286  0.584018757861891  0.1355490386086728  1.0000
  H   H142      1.0  0.3467421438857984  0.915981337715422  0.635550662273694  1.0000
  H   H143      1.0  0.34674348378886327  0.41598234394630385  0.8644496842093545  1.0000
  H   H144      1.0  0.6532548161554388  0.08402207088432329  0.3644500652752285  1.0000
  H   H145      1.0  0.7149267455412771  0.6141093985651693  0.18288932128086802  1.0000
  H   H146      1.0  0.2850744893686327  0.8858907099151877  0.6828918115670034  1.0000
  H   H147      1.0  0.2850761492934951  0.3858921746664095  0.817110069783169  1.0000
  H   H148      1.0  0.7149236418415583  0.11411223732682883  0.3171115889671796  1.0000
  H   H149      1.0  0.5792353375762007  0.49440543214963373  0.2428943241356194  1.0000
  H   H150      1.0  0.420769937278763  0.0055942928510006994  0.7428948701890262  1.0000
  H   H151      1.0  0.4207679453139903  0.5055947318445532  0.7571043986830474  1.0000
  H   H152      1.0  0.5792310823130508  0.9944072652833569  0.2571061914877575  1.0000
  H   H153      1.0  0.6793039026168871  0.5090950589915977  0.21521669242780914  1.0000
  H   H154      1.0  0.3207001738993185  0.9909055532894157  0.7152179058142849  1.0000
  H   H155      1.0  0.3206987551927655  0.49090509997020587  0.7847826986361071  1.0000
  H   H156      1.0  0.6793004576397905  0.009097414082461298  0.28478449235383607  1.0000
  H   H157      1.0  0.5880291031953111  0.4723609941618038  0.18583147717247778  1.0000
  H   H158      1.0  0.4119746165621905  0.0276396420014251  0.6858319982084993  1.0000
  H   H159      1.0  0.4119737126270309  0.5276401076463273  0.8141669115225623  1.0000
  H   H160      1.0  0.588027028112876  0.9723619211654438  0.3141690634690093  1.0000
  H   H161      1.0  0.2127847420238211  0.7961255308275592  0.16113330708246554  1.0000
  H   H162      1.0  0.7872124798886304  0.703870301438357  0.6611356579751728  1.0000
  H   H163      1.0  0.7872164216037092  0.20386943744555444  0.838864413365364  1.0000
  H   H164      1.0  0.21278478221319125  0.29612746014704067  0.3388637330827748  1.0000
  H   H165      1.0  0.2854210251362375  0.8350794821040137  0.2005535502692979  1.0000
  H   H166      1.0  0.7145792539451465  0.6649177994963793  0.7005550737805635  1.0000
  H   H167      1.0  0.7145799084539776  0.16491783825307485  0.7994451725469672  1.0000
  H   H168      1.0  0.28541957435937354  0.3350818578472143  0.2994449855249569  1.0000
  H   H169      1.0  0.2123976920516882  0.7686694114335211  0.2174113141701426  1.0000
  H   H170      1.0  0.7875999074272216  0.7313259707304381  0.7174123235652841  1.0000
  H   H171      1.0  0.7876017543442091  0.2313264845886422  0.7825867403985923  1.0000
  H   H172      1.0  0.2123960255010999  0.26867130936673783  0.2825874016141653  1.0000
  H   H173      1.0  0.8904842466541254  0.29028331848952155  0.5908246516248852  1.0000
  H   H174      1.0  0.1095175102290611  0.20970644397778668  0.09083010009794629  1.0000
  H   H175      1.0  0.10951785110911776  0.7097097741557049  0.4091737370701907  1.0000
  H   H176      1.0  0.8904827262559822  0.7902941662772275  0.9091692909631205  1.0000
  C   C1        1.0  0.5750755956048366  0.9205205379982571  0.5942877390781334  1.0000
  C   C2        1.0  0.4249217880707692  0.5794757453975875  0.09428659218934138  1.0000
  C   C3        1.0  0.4249279173335125  0.07947727391245961  0.4057126543559662  1.0000
  C   C4        1.0  0.5750694602183019  0.4205233801322166  0.9057114623695951  1.0000
  C   C5        1.0  0.49568658387796927  0.008155422266483497  0.5869453930007325  1.0000
  C   C6        1.0  0.5043117930409055  0.4918404320050628  0.08694634533839009  1.0000
  C   C7        1.0  0.5043148167909449  0.991840960277173  0.41305633692302013  1.0000
  C   C8        1.0  0.4956821926103317  0.5081601279247606  0.913052711592499  1.0000
  C   C9        1.0  0.997821931148792  0.28159051573230437  0.6330164900838752  1.0000
  C   C10       1.0  0.0021810371105602144  0.2184044483749688  0.1330180138041541  1.0000
  C   C11       1.0  0.002181962859879161  0.718402120587399  0.366982900982272  1.0000
  C   C12       1.0  0.9978201404939357  0.781598052605716  0.8669820455037608  1.0000
  C   C13       1.0  0.5715944312520167  0.8024877686612796  0.2371814474732901  1.0000
  C   C14       1.0  0.428402552498561  0.6975104394670665  0.7371809675373768  1.0000
  C   C15       1.0  0.4284096417313919  0.19751710956595048  0.7628196142066627  1.0000
  C   C16       1.0  0.5715929854055092  0.30248448351463963  0.2628231012406488  1.0000
  C   C17       1.0  0.23513475756666943  0.4010462685924594  0.4924617533276461  1.0000
  C   C18       1.0  0.7648629357249845  0.09895582755569879  0.9924624046048436  1.0000
  C   C19       1.0  0.7648653278948531  0.5989571651700414  0.5075399765938258  1.0000
  C   C20       1.0  0.2351351954716493  0.9010471196856925  0.0075376546995116  1.0000
  C   C21       1.0  0.37803456712039485  0.7803268602080211  0.3647092866902923  1.0000
  C   C22       1.0  0.6219651684937733  0.7196704684868961  0.8647099166142027  1.0000
  C   C23       1.0  0.6219651232897832  0.2196742164377382  0.6352901043700994  1.0000
  C   C24       1.0  0.37803545604940336  0.2803287325308474  0.13528947444746817  1.0000
  C   C25       1.0  0.4715641927053227  0.9197102324126117  0.5354559132693878  1.0000
  C   C26       1.0  0.5284320885874012  0.5802860236616069  0.035454670791636986  1.0000
  C   C27       1.0  0.5284394782497729  0.0802885223446239  0.46454448016479677  1.0000
  C   C28       1.0  0.47156181805275577  0.41971406484482526  0.9645437178932426  1.0000
  C   C29       1.0  0.11912517626427643  0.3877122073578078  0.422865474320659  1.0000
  C   C30       1.0  0.8808693010304652  0.11229266579999829  0.9228660561378204  1.0000
  C   C31       1.0  0.8808746001434289  0.6122931070650282  0.5771352532313045  1.0000
  C   C32       1.0  0.1191281190908171  0.8877060386320463  0.07713400316617941  1.0000
  C   C33       1.0  0.025996689047559602  0.25495092735520325  0.672283510034532  1.0000
  C   C34       1.0  0.9740020641830044  0.24504307355469016  0.17228493030844308  1.0000
  C   C35       1.0  0.9740065798792232  0.7450417039320457  0.32771621515387034  1.0000
  C   C36       1.0  0.025996771101191044  0.7549603501422837  0.8277141266277255  1.0000
  C   C37       1.0  0.15001019680440217  0.3785446592269182  0.5013757246456193  1.0000
  C   C38       1.0  0.8499874208485139  0.12145822390932182  0.0013758831116916998  1.0000
  C   C39       1.0  0.8499915268790306  0.6214573753632137  0.49862533703193174  1.0000
  C   C40       1.0  0.15001219055329076  0.8785423813131744  0.9986235079486575  1.0000
  C   C41       1.0  0.43483638035147737  0.8341479121524742  0.4799015859070508  1.0000
  C   C42       1.0  0.5651653099385786  0.6658518223332449  0.9799027646502763  1.0000
  C   C43       1.0  0.5651659684138509  0.1658541274701051  0.520099141648231  1.0000
  C   C44       1.0  0.4348343014686409  0.3341487828895069  0.0200979629020068  1.0000
  C   C45       1.0  0.9501536914963967  0.6836689706743115  0.20443183022327815  1.0000
  C   C46       1.0  0.04984404668392986  0.8163315871953073  0.704431454127892  1.0000
  C   C47       1.0  0.04984396564864821  0.31633114802745144  0.7955678949578553  1.0000
  C   C48       1.0  0.9501574399689617  0.1836690331247937  0.29556827105760414  1.0000
  C   C49       1.0  0.5520870076321602  0.8513231776583582  0.2095487808220753  1.0000
  C   C50       1.0  0.44791225924769423  0.648678806484419  0.7095470198747124  1.0000
  C   C51       1.0  0.4479189406009852  0.14868171566641306  0.7904522808600305  1.0000
  C   C52       1.0  0.5520859439871375  0.3513208458272955  0.2904563806599114  1.0000
  C   C53       1.0  0.47851272078032303  0.8851609142269583  0.2185720176215185  1.0000
  C   C54       1.0  0.5214859152055027  0.6148405968782524  0.7185684288762176  1.0000
  C   C55       1.0  0.5214924443541875  0.11484303121884656  0.7814293781827715  1.0000
  C   C56       1.0  0.4785108798366054  0.3851581025214729  0.2814326327960046  1.0000
  C   C57       1.0  0.31545394645939956  0.6933224502732711  0.2014163056678555  1.0000
  C   C58       1.0  0.6845428261426464  0.8066762157284798  0.7014167270913205  1.0000
  C   C59       1.0  0.6845465990754038  0.3066762793212163  0.7985830853937728  1.0000
  C   C60       1.0  0.31545388988566  0.19332201224773374  0.298582998088925  1.0000
  C   C61       1.0  0.13636714244626802  0.5625784705771507  0.2346342860281396  1.0000
  C   C62       1.0  0.86363303204476  0.9374239995254283  0.7346330876231376  1.0000
  C   C63       1.0  0.8636326269790616  0.4374230774921842  0.7653667756472087  1.0000
  C   C64       1.0  0.13636657936110913  0.0625766056972594  0.2653673058061585  1.0000
  C   C65       1.0  0.2617130891265377  0.41586453130530276  0.44922693667177066  1.0000
  C   C66       1.0  0.7382826151773046  0.08413894763502577  0.9492271957143856  1.0000
  C   C67       1.0  0.7382859831895487  0.5841403066617588  0.5507737908794325  1.0000
  C   C68       1.0  0.26171606209285175  0.9158635332155496  0.0507725294676717  1.0000
  C   C69       1.0  0.6047741279031627  0.8700444964797782  0.1730986951378242  1.0000
  C   C70       1.0  0.39522477123275485  0.6299607687836897  0.6730964825861534  1.0000
  C   C71       1.0  0.39523338653538803  0.12996229260330236  0.8269037030378215  1.0000
  C   C72       1.0  0.6047716357688415  0.3700393398541237  0.3269089226842397  1.0000
  C   C73       1.0  0.05295608898094172  0.333505531161606  0.5623674291986944  1.0000
  C   C74       1.0  0.9470494175642444  0.1664818986353254  0.0623711430472085  1.0000
  C   C75       1.0  0.9470503703948341  0.6664800640039561  0.43763029125624797  1.0000
  C   C76       1.0  0.05295408839715075  0.8335121469221392  0.9376309210021956  1.0000
  C   C77       1.0  0.3679736745245776  0.7286772420689545  0.3363248650146531  1.0000
  C   C78       1.0  0.6320259098141039  0.7713205472953464  0.8363248387975091  1.0000
  C   C79       1.0  0.6320263249380674  0.2713219539164059  0.66367519429226  1.0000
  C   C80       1.0  0.3679742476598591  0.2286795915362773  0.16367388401755528  1.0000
  C   C81       1.0  0.9347078655081235  0.6384563938681821  0.2385063472878954  1.0000
  C   C82       1.0  0.06529155729744937  0.8615451298223676  0.7385053288547496  1.0000
  C   C83       1.0  0.06528799539827192  0.3615441811594238  0.7614940461370807  1.0000
  C   C84       1.0  0.9347100873776103  0.1384564333445084  0.261495732822759  1.0000
  C   C85       1.0  0.643382116464899  0.7737116757452328  0.22975164057437775  1.0000
  C   C86       1.0  0.35661371486712323  0.7262874623501573  0.7297533277648396  1.0000
  C   C87       1.0  0.3566206273355164  0.22629272099333514  0.770247416366196  1.0000
  C   C88       1.0  0.6433855015036514  0.2737107857565491  0.27024873627917145  1.0000
  C   C89       1.0  0.4126002809461724  0.6642034954414767  0.39557461778995406  1.0000
  C   C90       1.0  0.5873985339113403  0.8357943063050114  0.8955734724371921  1.0000
  C   C91       1.0  0.5873998765372833  0.33579664339059423  0.6044264438859912  1.0000
  C   C92       1.0  0.4126017025737029  0.164206303950003  0.10442591862388177  1.0000
  C   C93       1.0  0.07101341231372524  0.6041562182353672  0.22441939837923283  1.0000
  C   C94       1.0  0.9289893376575904  0.8958472109739116  0.7244190278690112  1.0000
  C   C95       1.0  0.9289902656251101  0.3958463028754409  0.7755809950545467  1.0000
  C   C96       1.0  0.0710108198258581  0.10415292785815208  0.2755820338069341  1.0000
  C   C97       1.0  0.8144863470798215  0.7301078639563626  0.20963530013438705  1.0000
  C   C98       1.0  0.18551072921887626  0.7698922194286197  0.7096335762651051  1.0000
  C   C99       1.0  0.1855126392455092  0.26989273623394183  0.7903657615401584  1.0000
  C   C100      1.0  0.8144908364342598  0.23010887231436067  0.2903641441825329  1.0000
  C   C101      1.0  0.40445758237947876  0.7741029953356887  0.4090841911534397  1.0000
  C   C102      1.0  0.595545250606314  0.7258957845711008  0.9090854270550254  1.0000
  C   C103      1.0  0.5955407788571848  0.22589759982184893  0.5909155340284542  1.0000
  C   C104      1.0  0.4044555319522516  0.2741043592931049  0.0909136298837367  1.0000
  C   C105      1.0  0.5321575900379898  0.8901114748097781  0.5584951024630767  1.0000
  C   C106      1.0  0.46783700291867103  0.6098847748954626  0.0584933797659204  1.0000
  C   C107      1.0  0.46784553484087604  0.1098877463381456  0.44150495684743873  1.0000
  C   C108      1.0  0.532153225242574  0.39011198848539397  0.9415040065461253  1.0000
  C   C109      1.0  0.9705739731146964  0.2145490358373863  0.698033457063147  1.0000
  C   C110      1.0  0.029423975878899007  0.28544637903274855  0.1980340268423575  1.0000
  C   C111      1.0  0.02942992089533196  0.785443600482374  0.3019662681259803  1.0000
  C   C112      1.0  0.9705733722109784  0.7145556203292855  0.8019643618462879  1.0000
  C   C113      1.0  0.697179660287809  0.7941904381716041  0.1939554346587897  1.0000
  C   C114      1.0  0.3028172167829767  0.705812934203493  0.6939553315713524  1.0000
  C   C115      1.0  0.30282449169855147  0.2058149114786261  0.8060442905292715  1.0000
  C   C116      1.0  0.6971800523147919  0.2941885937360381  0.3060470665930452  1.0000
  C   C117      1.0  0.09160174948199547  0.3717653914681948  0.4659830128411002  1.0000
  C   C118      1.0  0.9083973741988275  0.12823906182957504  0.9659839888328462  1.0000
  C   C119      1.0  0.908400448248969  0.6282394716613665  0.5340173805907256  1.0000
  C   C120      1.0  0.09160246724842125  0.8717591913093229  0.0340164045969686  1.0000
  C   C121      1.0  0.5585531901270219  0.979954807182587  0.6087863122290146  1.0000
  C   C122      1.0  0.4414456403483911  0.52004196319443  0.1087848820903687  1.0000
  C   C123      1.0  0.44144680236678363  0.020040622449897696  0.3912174224311116  1.0000
  C   C124      1.0  0.5585468581044566  0.4799571724002617  0.8912125042240432  1.0000
  C   C125      1.0  0.2326641300758042  0.4271376268001958  0.3676384131984634  1.0000
  C   C126      1.0  0.7673300501914967  0.07286440192687847  0.867637405159762  1.0000
  C   C127      1.0  0.7673333760402984  0.5728653154088049  0.6323623143511412  1.0000
  C   C128      1.0  0.23266831104516683  0.9271361932306589  0.132362320022132  1.0000
  C   C129      1.0  0.4218124160246576  0.7152695661091072  0.4246700522567153  1.0000
  C   C130      1.0  0.5781892932348569  0.7847292096372057  0.9246695648799843  1.0000
  C   C131      1.0  0.5781857081896008  0.2847296147787759  0.5753303411710248  1.0000
  C   C132      1.0  0.4218135225888346  0.2152718921709962  0.0753291579380431  1.0000
  C   C133      1.0  0.3742289462340907  0.6136728663484944  0.3216488666907509  1.0000
  C   C134      1.0  0.6257709861026799  0.8863239796414958  0.8216481330950884  1.0000
  C   C135      1.0  0.6257724614144918  0.3863272825485353  0.6783518608636497  1.0000
  C   C136      1.0  0.3742276841810295  0.11367473485538677  0.17835092384139983  1.0000
  C   C137      1.0  0.36851771354744056  0.7641167999434868  0.140641059317467  1.0000
  C   C138      1.0  0.6314791120615837  0.7358813766420552  0.6406410394563551  1.0000
  C   C139      1.0  0.6314832200454888  0.23588052041373683  0.8593583317447581  1.0000
  C   C140      1.0  0.3685172879291728  0.26411496564092113  0.3593576833547871  1.0000
  C   C141      1.0  0.885751970679607  0.2005762853790358  0.6854860403914955  1.0000
  C   C142      1.0  0.11424618557075662  0.2994172440770058  0.1854874710246364  1.0000
  C   C143      1.0  0.1142508381657663  0.7994210500758424  0.3145140189188638  1.0000
  C   C144      1.0  0.8857520966507622  0.7005828796569487  0.814510583542301  1.0000
  C   C145      1.0  0.519340928521956  0.5889619671584398  0.2091732170144027  1.0000
  C   C146      1.0  0.4806624738740696  0.911038637800111  0.7091728117142111  1.0000
  C   C147      1.0  0.4806631374722984  0.41103914471496944  0.7908265081740069  1.0000
  C   C148      1.0  0.5193340121115002  0.08896194225982158  0.2908265793425429  1.0000
  C   C149      1.0  0.6078977045295632  0.010278647137447198  0.6469697136248483  1.0000
  C   C150      1.0  0.3921014033683009  0.4897224104981532  0.1469697394010296  1.0000
  C   C151      1.0  0.39210284101743303  0.9897200824576089  0.3530326845436278  1.0000
  C   C152      1.0  0.6078971948934823  0.5102795989291664  0.8530299857809851  1.0000
  C   C153      1.0  0.8270767482399608  0.1543349114075099  0.7113096747867614  1.0000
  C   C154      1.0  0.17292404582764223  0.3456619428926119  0.21131189904592423  1.0000
  C   C155      1.0  0.17292418534889728  0.8456624089495152  0.2886887139065166  1.0000
  C   C156      1.0  0.8270755655728054  0.6543386623298203  0.7886871578914452  1.0000
  C   C157      1.0  0.3854943322149467  0.6698573882728808  0.35142190438403986  1.0000
  C   C158      1.0  0.6145009990181551  0.8301403715833118  0.851420822751443  1.0000
  C   C159      1.0  0.6145058252630878  0.33014275055893444  0.6485778207999715  1.0000
  C   C160      1.0  0.3854998625501409  0.16986024370421396  0.1485785683103487  1.0000
  C   C161      1.0  0.6761301525619388  0.8417917390631542  0.1652589187852413  1.0000
  C   C162      1.0  0.3238678208693886  0.6582121039281861  0.6652585403453699  1.0000
  C   C163      1.0  0.32387728285739575  0.15821457859616572  0.8347408064065005  1.0000
  C   C164      1.0  0.6761308564183893  0.341790376923214  0.3347455284354552  1.0000
  C   C165      1.0  0.4529567124971551  0.9786037287499667  0.5505853082654041  1.0000
  C   C166      1.0  0.5470385203870124  0.5213929944146969  0.0505854578420966  1.0000
  C   C167      1.0  0.5470445371360386  0.021395477300608003  0.4494157534118983  1.0000
  C   C168      1.0  0.45295843266234936  0.4786066478311071  0.9494132649693299  1.0000
  C   C169      1.0  0.8575542017482576  0.22915531502295752  0.6472232432023758  1.0000
  C   C170      1.0  0.142444657230719  0.2708367957325635  0.1472274179876436  1.0000
  C   C171      1.0  0.1424471199000905  0.7708405960968673  0.3527754796144861  1.0000
  C   C172      1.0  0.857555270201864  0.7291656951828499  0.852771304826902  1.0000
  C   C173      1.0  0.08567972458264712  0.6493436877305497  0.1903465510334001  1.0000
  C   C174      1.0  0.9143166491661818  0.8506568547380553  0.6903481611399229  1.0000
  C   C175      1.0  0.9143184786304915  0.35065596458015585  0.8096515035335018  1.0000
  C   C176      1.0  0.0856795207967451  0.14934183962934358  0.30965390290052847  1.0000
  C   C177      1.0  0.20384297918629812  0.40954484885486403  0.41377675628559973  1.0000
  C   C178      1.0  0.7961516544114461  0.09045766877569858  0.9137768133016023  1.0000
  C   C179      1.0  0.7961578893725164  0.5904595327865465  0.586224305390708  1.0000
  C   C180      1.0  0.20384608174468616  0.9095429213494483  0.0862235801255338  1.0000
  C   C181      1.0  0.9950304106559786  0.5993008279689745  0.2480523146640721  1.0000
  C   C182      1.0  0.004971826954346224  0.9007021337380438  0.7480514828339366  1.0000
  C   C183      1.0  0.004969674800129599  0.40070260579327754  0.7519480787654728  1.0000
  C   C184      1.0  0.995030205777482  0.09929802019149751  0.2519492447211888  1.0000
  C   C185      1.0  0.026305381228844727  0.6887338069119906  0.1804437413798752  1.0000
  C   C186      1.0  0.9736884048669837  0.8112629453214241  0.6804464992395651  1.0000
  C   C187      1.0  0.9736893805332231  0.31126393454304235  0.8195539790602735  1.0000
  C   C188      1.0  0.026309640341608515  0.18873576414332402  0.31955456243409935  1.0000
  C   C189      1.0  0.6515132297660814  0.6074828612447759  0.1682022049243486  1.0000
  C   C190      1.0  0.34848968222598126  0.8925167853453215  0.6682038376588437  1.0000
  C   C191      1.0  0.34849075721844264  0.39251777920531344  0.8317971861410457  1.0000
  C   C192      1.0  0.6515092320747159  0.10748710977528479  0.3317972240152613  1.0000
  C   C193      1.0  0.6110471799194527  0.5077663742730676  0.21123854563497693  1.0000
  C   C194      1.0  0.3889581144880483  0.9922342465657721  0.7112395820223937  1.0000
  C   C195      1.0  0.3889563399931434  0.4922352039907735  0.7887595089378436  1.0000
  C   C196      1.0  0.6110436091953846  0.0077677880243598  0.2887614796551503  1.0000
  C   C197      1.0  0.25268658922696124  0.7890356514772561  0.1900854444238433  1.0000
  C   C198      1.0  0.7473111045945658  0.7109616060271405  0.6900870335294584  1.0000
  C   C199      1.0  0.7473143443618967  0.2109616688797757  0.8099129442694417  1.0000
  C   C200      1.0  0.25268615750862017  0.2890361555583212  0.30991269165147617  1.0000
  C   C201      1.0  0.9124585185706026  0.2692927042982092  0.620869686064225  1.0000
  C   C202      1.0  0.08754286395701882  0.23070083087259258  0.12087274049068947  1.0000
  C   C203      1.0  0.08754381622046745  0.7307018026169203  0.3791293708769388  1.0000
  C   C204      1.0  0.9124570634755642  0.7693016600428206  0.8791259823238562  1.0000
  N   N1        1.0  0.4116573432433342  0.8287421454291746  0.4355089779155819  1.0000
  N   N2        1.0  0.5883445329657562  0.6712571058471112  0.935509874828277  1.0000
  N   N3        1.0  0.5883425051890114  0.17125987406335952  0.5644917496368222  1.0000
  N   N4        1.0  0.41165749976472205  0.3287430480823729  0.0644905186038613  1.0000
  N   N5        1.0  0.3131324213550359  0.7467611682844435  0.1785068208214042  1.0000
  N   N6        1.0  0.6868654155529371  0.7532374991029513  0.6785079273266063  1.0000
  N   N7        1.0  0.6868679661589496  0.25323661846333306  0.8214915678711918  1.0000
  N   N8        1.0  0.3131314584907657  0.2467616717197174  0.32149146373074444  1.0000
  N   N9        1.0  0.7723587945511455  0.7704089246947343  0.18432309243219439  1.0000
  N   N10       1.0  0.22763893850255817  0.7295925684028717  0.6843221426188675  1.0000
  N   N11       1.0  0.2276422250379612  0.2295926334394949  0.8156773009986225  1.0000
  N   N12       1.0  0.7723615350076046  0.27040945612191786  0.315677248442327  1.0000
  N   N13       1.0  0.12890845331944692  0.36406237647992157  0.5458581627974795  1.0000
  N   N14       1.0  0.8710913144788324  0.13593630082989697  0.04585936918712719  1.0000
  N   N15       1.0  0.871095605693775  0.6359349690400508  0.45414223063729503  1.0000
  N   N16       1.0  0.12890782986053756  0.8640652422067987  0.9541410242415296  1.0000
  N   N17       1.0  0.5930220116743358  0.5701648569341485  0.198110826159251  1.0000
  N   N18       1.0  0.4069811429624722  0.9298348009870593  0.6981119175182045  1.0000
  N   N19       1.0  0.40698205431585427  0.429836254939076  0.8018878966602188  1.0000
  N   N20       1.0  0.5930173762963662  0.07016673701724588  0.3018891441557018  1.0000
  N   N21       1.0  0.8931520848020825  0.7247687889436704  0.19191217192179977  1.0000
  N   N22       1.0  0.1068443806480701  0.7752322255409322  0.6919116019842091  1.0000
  N   N23       1.0  0.10684432217918532  0.27523131969319076  0.8080882215038585  1.0000
  N   N24       1.0  0.8931573430245195  0.2247698090486949  0.30808678670948086  1.0000
  N   N25       1.0  0.4311663522324452  0.8944605712348662  0.496933494237652  1.0000
  N   N26       1.0  0.5688312516841734  0.605536310968823  0.9969340261516564  1.0000
  N   N27       1.0  0.5688343513218116  0.10553910120626847  0.5030665650700215  1.0000
  N   N28       1.0  0.43116570136789545  0.3944633312771017  0.00306536490573  1.0000
  N   N29       1.0  0.058136298919976126  0.3198737013689978  0.6076461126315138  1.0000
  N   N30       1.0  0.9418626340105691  0.18012075150844  0.1076494774738634  1.0000
  N   N31       1.0  0.9418648647129759  0.680121266904372  0.39235294430825  1.0000
  N   N32       1.0  0.058136510332865036  0.8198807915284477  0.8923519183237402  1.0000
  O   O1        1.0  0.3091490156181465  0.4765029257021779  0.2569756277376811  1.0000
  O   O2        1.0  0.6908502016519976  0.0234972257313757  0.7569757904195314  1.0000
  O   O3        1.0  0.6908519249653011  0.5234981610089235  0.74302543393906  1.0000
  O   O4        1.0  0.30914729747901504  0.9765019501239961  0.24302460300748407  1.0000
  O   O5        1.0  0.20586386075278545  0.5742452634748716  0.2141091900837537  1.0000
  O   O6        1.0  0.794134890072506  0.9257534224331108  0.714108836285426  1.0000
  O   O7        1.0  0.7941357506571481  0.4257553417480012  0.7858922057144894  1.0000
  O   O8        1.0  0.20586299712205403  0.07424434418524581  0.2858928936341271  1.0000
  O   O9        1.0  0.3632180797754643  0.653083712327806  0.1925096487163458  1.0000
  O   O10       1.0  0.6367819830109626  0.8469163897320086  0.6925106195948133  1.0000
  O   O11       1.0  0.636784499023108  0.3469159752106065  0.8074890741015608  1.0000
  O   O12       1.0  0.36321543711031984  0.1530823147000433  0.3074894397091795  1.0000
  O   O13       1.0  0.33301653862572783  0.6166827090696928  0.2856831527474526  1.0000
  O   O14       1.0  0.6669809176255089  0.8833159888573547  0.7856828489589844  1.0000
  O   O15       1.0  0.6669850270355369  0.38331838267366447  0.7143165724380864  1.0000
  O   O16       1.0  0.333015647367084  0.11668506262577685  0.21431620797482512  1.0000
  O   O17       1.0  0.6655746470042632  0.9828544776288979  0.6636567797781794  1.0000
  O   O18       1.0  0.3344246356189303  0.517146079890118  0.1636561058275845  1.0000
  O   O19       1.0  0.33442816883027143  0.017146624179801496  0.3363446160237088  1.0000
  O   O20       1.0  0.6655732585539414  0.4828554530815552  0.8363442875996299  1.0000
  O   O21       1.0  0.4639813596342394  0.5560159523503713  0.2316820196936362  1.0000
  O   O22       1.0  0.5360222253776215  0.9439846611360422  0.7316824032270901  1.0000
  O   O23       1.0  0.5360252856986564  0.4439856510762183  0.7683170372517338  1.0000
  O   O24       1.0  0.4639730104387497  0.056015908858739694  0.2683163195822544  1.0000
  O   O25       1.0  0.749119632269398  0.1491717174512246  0.7005351216303949  1.0000
  O   O26       1.0  0.2508841928411272  0.35082139157695014  0.20054320465311548  1.0000
  O   O27       1.0  0.25088270250541467  0.8508227894631514  0.29945992583497366  1.0000
  O   O28       1.0  0.7491172938117644  0.6491792287431506  0.7994565205323809  1.0000
  O   O29       1.0  0.4286906541021552  0.8651162097657591  0.25031097269597774  1.0000
  O   O30       1.0  0.5713085554139427  0.634887199057168  0.7503074945402161  1.0000
  O   O31       1.0  0.5713145830556313  0.13488444074967276  0.7496900889857726  1.0000
  O   O32       1.0  0.4286940303670122  0.36511625483474563  0.24969089415431253  1.0000
  O   O33       1.0  0.47210681482870603  0.9326254146972206  0.19343660139680446  1.0000
  O   O34       1.0  0.5278887218669513  0.5673737096391276  0.693434708233191  1.0000
  O   O35       1.0  0.5278927175620114  0.0673747191018919  0.8065621214175422  1.0000
  O   O36       1.0  0.4721090932961972  0.4326273519092183  0.3065653510710078  1.0000
  O   O37       1.0  0.40723425265081664  0.5656457156873741  0.3355741534552905  1.0000
  O   O38       1.0  0.5927625882319917  0.934350638992335  0.8355723310548696  1.0000
  O   O39       1.0  0.5927645756564175  0.43435394165634716  0.6644265740961898  1.0000
  O   O40       1.0  0.40723537795467024  0.06564759904851768  0.1644253893889243  1.0000
  O   O41       1.0  0.31216950473206856  0.43694677032851104  0.3613135557573131  1.0000
  O   O42       1.0  0.6878232880667526  0.0630510081606204  0.8613133688451384  1.0000
  O   O43       1.0  0.6878290145267629  0.5630547676757941  0.638687505916593  1.0000
  O   O44       1.0  0.31217350696586277  0.9369476912386574  0.13868535396620268  1.0000
  O   O45       1.0  0.11661452867431882  0.5181212000387986  0.2631319513420394  1.0000
  O   O46       1.0  0.8833834487206361  0.9818779658006559  0.7631337960422897  1.0000
  O   O47       1.0  0.8833850037245272  0.48187893376069013  0.7368687762102012  1.0000
  O   O48       1.0  0.1166138924004088  0.018120267208516304  0.2368682679995544  1.0000
  O   O49       1.0  0.1758802012143974  0.43051690232009315  0.3380213520541631  1.0000
  O   O50       1.0  0.8241133507164876  0.0694865244236453  0.8380211439369276  1.0000
  O   O51       1.0  0.824115738699007  0.5694841441307118  0.6619787072478757  1.0000
  O   O52       1.0  0.17588150402820457  0.9305192211621005  0.1619782471173892  1.0000
  O   O53       1.0  0.8587816912392089  0.12351868881727057  0.7420914626783812  1.0000
  O   O54       1.0  0.14121482592832996  0.37648096542362447  0.24208993184360844  1.0000
  O   O55       1.0  0.1412172160777558  0.8764814399497707  0.2579095989961218  1.0000
  O   O56       1.0  0.8587876018358855  0.6235215456217771  0.7579084568508421  1.0000
  O   O57       1.0  0.5890683374913478  0.06378831802803119  0.6611505337955775  1.0000
  O   O58       1.0  0.4109302603757429  0.43621273994781967  0.1611516168589162  1.0000
  O   O59       1.0  0.41093079986834635  0.9362094586552913  0.3388508620024311  1.0000
  O   O60       1.0  0.5890691999930483  0.5637906887817294  0.838847774200957  1.0000
  O   O61       1.0  0.4562031817271975  0.7910211721444824  0.5026333381793222  1.0000
  O   O62       1.0  0.5438003412686925  0.7089788982386408  0.0026341082240008994  1.0000
  O   O63       1.0  0.5437990880270434  0.20898039605471294  0.497366721129957  1.0000
  O   O64       1.0  0.45620013224283446  0.2910231262862125  0.9973656169601737  1.0000
  O   O65       1.0  0.7849203305607021  0.7022120302598224  0.2433389225466698  1.0000
  O   O66       1.0  0.21507921045704145  0.7977899666847463  0.743337260869545  1.0000
  O   O67       1.0  0.21508014295352504  0.297789994265159  0.7566614708834648  1.0000
  O   O68       1.0  0.7849227502379537  0.20221348217453544  0.2566604595782991  1.0000
  O   O69       1.0  0.989239424773068  0.3201367796031603  0.5395408939257249  1.0000
  O   O70       1.0  0.010769468119384808  0.1798384298338362  0.0395461210813508  1.0000
  O   O71       1.0  0.010773968566077497  0.67983804328216  0.4604544876774952  1.0000
  O   O72       1.0  0.9892372213221635  0.8201448132490795  0.960457613587799  1.0000
