data_image0
_chemical_formula_structural       Cd8H176C232N32O32
_chemical_formula_sum              "Cd8 H176 C232 N32 O32"
_cell_length_a       16.0081849996438
_cell_length_b       16.085594046993496
_cell_length_c       28.851853077545464
_cell_angle_alpha    89.99960829649783
_cell_angle_beta     89.99955666075374
_cell_angle_gamma    107.7152427465406

_space_group_name_H-M_alt    "P 1"
_space_group_IT_number       1

loop_
  _space_group_symop_operation_xyz
  'x, y, z'

loop_
  _atom_site_type_symbol
  _atom_site_label
  _atom_site_symmetry_multiplicity
  _atom_site_fract_x
  _atom_site_fract_y
  _atom_site_fract_z
  _atom_site_occupancy
  Cd  Cd1       1.0  0.6166195566751611  0.1314097184581442  0.9660490187269204  1.0000
  Cd  Cd2       1.0  0.6619025463266794  0.3525031794456339  0.0340220538042928  1.0000
  Cd  Cd3       1.0  0.6166119113392057  0.6314139280854861  0.5339527633499799  1.0000
  Cd  Cd4       1.0  0.6619119635047497  0.8525097510379991  0.4659826038004837  1.0000
  Cd  Cd5       1.0  0.38337900830256894  0.36858044054985567  0.466048253634149  1.0000
  Cd  Cd6       1.0  0.3380900913116348  0.1474971405861538  0.5340166801446671  1.0000
  Cd  Cd7       1.0  0.3833911318683932  0.8685817305452305  0.0339502652292367  1.0000
  Cd  Cd8       1.0  0.3380903871249786  0.647493820112011  0.965981389357772  1.0000
  H   H1        1.0  0.6896700507308678  0.5141285233544934  0.889523059580327  1.0000
  H   H2        1.0  0.670604946170087  0.24276342169594756  0.8722689237055478  1.0000
  H   H3        1.0  0.6546695134649099  0.2541518270629695  0.7872799411213975  1.0000
  H   H4        1.0  0.6350716553682219  0.29614681740220306  0.7029459782949274  1.0000
  H   H5        1.0  0.62223891065706  0.36902489264821975  0.6273458693709486  1.0000
  H   H6        1.0  0.6553814040054888  0.6126198889747201  0.6964365599745294  1.0000
  H   H7        1.0  0.536366834429806  0.5338008825378252  0.8026353459218001  1.0000
  H   H8        1.0  0.6009061827782175  0.6381989360980567  0.7827191279460877  1.0000
  H   H9        1.0  0.6116326517276035  0.6059697109416787  0.840802437601397  1.0000
  H   H10       1.0  0.8171248213373513  0.5892948051411293  0.7824220673522078  1.0000
  H   H11       1.0  0.7765840796381056  0.6392210391595156  0.8288748811748405  1.0000
  H   H12       1.0  0.765673318762147  0.6708309354631439  0.7704744357630702  1.0000
  H   H13       1.0  0.6116701178929845  0.9805503708124733  0.11015956764479282  1.0000
  H   H14       1.0  0.5893982716953587  0.2382685912712432  0.1294984458287658  1.0000
  H   H15       1.0  0.5929250827074667  0.22242114449772288  0.2148746139078526  1.0000
  H   H16       1.0  0.6076027869768196  0.17748146953321248  0.3004334709926866  1.0000
  H   H17       1.0  0.6346156588791771  0.1083150943951949  0.3749327463651754  1.0000
  H   H18       1.0  0.6540165498954166  0.8833308438716683  0.3016437240070502  1.0000
  H   H19       1.0  0.48659479176915  0.8811548154309745  0.2139041443698133  1.0000
  H   H20       1.0  0.5541717177159527  0.8145341913461763  0.22736253406500143  1.0000
  H   H21       1.0  0.5407897575420647  0.8436549332364008  0.1688078625650178  1.0000
  H   H22       1.0  0.7691750855322252  0.9867975500733904  0.2003392121056464  1.0000
  H   H23       1.0  0.7083094306368735  0.9076718464046819  0.1598901002420874  1.0000
  H   H24       1.0  0.7208793660695675  0.8765258224637619  0.21806282617565387  1.0000
  H   H25       1.0  0.8573988222995792  0.43620801724081554  0.9945545758216383  1.0000
  H   H26       1.0  0.01016625216391281  0.42442351210843293  0.004491422950629  1.0000
  H   H27       1.0  0.9074708620203891  0.23787871747653358  0.11376497556659611  1.0000
  H   H28       1.0  0.7599170053840041  0.25723781376031946  0.0993557836158487  1.0000
  H   H29       1.0  0.06404119338583311  0.27170979789593014  0.0932449977498351  1.0000
  H   H30       1.0  0.24653869193103617  0.41291919787620657  0.99282641311504  1.0000
  H   H31       1.0  0.32624394256593797  0.29035461404637897  0.0900348972096268  1.0000
  H   H32       1.0  0.4790343746057388  0.2771516548263405  0.0887670834090102  1.0000
  H   H33       1.0  0.5391198148275648  0.4170537836065903  0.9666135929384367  1.0000
  H   H34       1.0  0.38851322407498406  0.4362985999994321  0.9622526358628107  1.0000
  H   H35       1.0  0.43678150991448916  0.0888924361276295  0.019274598996482005  1.0000
  H   H36       1.0  0.2890082569160625  0.10741268536825996  0.0146207617306899  1.0000
  H   H37       1.0  0.3697378088453361  0.24974972211462898  0.8866277357880321  1.0000
  H   H38       1.0  0.5167661220513792  0.22671479936416009  0.8971806844833736  1.0000
  H   H39       1.0  0.2205500239916489  0.23453462103899617  0.9165817953754569  1.0000
  H   H40       1.0  0.0385247354417757  0.08510321040046159  0.0160514089262662  1.0000
  H   H41       1.0  0.8832134560005398  0.03400792154742759  0.0358508395149002  1.0000
  H   H42       1.0  0.7317867318078439  0.0479069651294708  0.028567378541744397  1.0000
  H   H43       1.0  0.811969543056776  0.24318281073741593  0.9306409518394645  1.0000
  H   H44       1.0  0.9681255316355999  0.2382595412619324  0.9331617796895983  1.0000
  H   H45       1.0  0.689677427304794  0.014125419704804196  0.6104826699283663  1.0000
  H   H46       1.0  0.670592519842188  0.7427600444347033  0.62773705063276  1.0000
  H   H47       1.0  0.6546632203950296  0.7541457453675731  0.7127267514517043  1.0000
  H   H48       1.0  0.6350609665321088  0.7961404661635781  0.797058558109825  1.0000
  H   H49       1.0  0.6222266838010667  0.8690126294551132  0.8726591359764129  1.0000
  H   H50       1.0  0.6553944638585916  0.11261994924096538  0.8035696327249938  1.0000
  H   H51       1.0  0.5363727864131318  0.03380140962182309  0.6973716626223521  1.0000
  H   H52       1.0  0.6009109901284403  0.13819649344095097  0.7172875482265509  1.0000
  H   H53       1.0  0.6116391545591923  0.1059702745993434  0.6592046625485111  1.0000
  H   H54       1.0  0.817129374282743  0.08929365180254929  0.7175845569251678  1.0000
  H   H55       1.0  0.7765932413395689  0.13922273412253358  0.671132073008664  1.0000
  H   H56       1.0  0.7656770712329432  0.1708276088000247  0.7295314044299772  1.0000
  H   H57       1.0  0.611665194170655  0.4805550973179962  0.389839616410093  1.0000
  H   H58       1.0  0.5893970446105569  0.7382747316476849  0.3704986445223994  1.0000
  H   H59       1.0  0.592917658441131  0.7224254493075791  0.2851232152477579  1.0000
  H   H60       1.0  0.6075871552524177  0.6774813111427065  0.19956377410522924  1.0000
  H   H61       1.0  0.6346081883865579  0.6083157428967993  0.1250660339626393  1.0000
  H   H62       1.0  0.6540091811856997  0.3833350292501834  0.1983566901960856  1.0000
  H   H63       1.0  0.4865820133825522  0.3811554070842433  0.2860942276446679  1.0000
  H   H64       1.0  0.5541599586982926  0.3145376361561459  0.2726347622492753  1.0000
  H   H65       1.0  0.5407735217742982  0.3436501221073982  0.3311907661613063  1.0000
  H   H66       1.0  0.7691605397714126  0.4867991706808539  0.2996613481454915  1.0000
  H   H67       1.0  0.7082926550586705  0.40767206336605  0.34011067958078195  1.0000
  H   H68       1.0  0.7208666092574346  0.37652843639716593  0.2819383655120973  1.0000
  H   H69       1.0  0.8574182986612798  0.9362203249241076  0.5054422252307873  1.0000
  H   H70       1.0  0.010181315311811507  0.9244316018081516  0.495500519846658  1.0000
  H   H71       1.0  0.9074756074954134  0.7378846777197409  0.3862338635404328  1.0000
  H   H72       1.0  0.7599266364023479  0.7572526909570528  0.40064361770671303  1.0000
  H   H73       1.0  0.06404992290665493  0.7717089662254678  0.40675284419084784  1.0000
  H   H74       1.0  0.24653832882656704  0.9129149113949919  0.5071720727215592  1.0000
  H   H75       1.0  0.32625315374964  0.7903426935653285  0.4099707536674941  1.0000
  H   H76       1.0  0.47904059944709604  0.7771338177520022  0.4112459307908054  1.0000
  H   H77       1.0  0.5391177466471646  0.9170470557652945  0.5333929730482367  1.0000
  H   H78       1.0  0.38851213730676903  0.9362911616923667  0.5377517331882373  1.0000
  H   H79       1.0  0.43677065784881103  0.588888020159743  0.48073065486532573  1.0000
  H   H80       1.0  0.28899833384004125  0.6074159950523279  0.4853836721297355  1.0000
  H   H81       1.0  0.36972445222529876  0.7497381418838174  0.6133795096519989  1.0000
  H   H82       1.0  0.5167516431774501  0.7266988419045859  0.6028260150952249  1.0000
  H   H83       1.0  0.220540530241081  0.7345327276039413  0.5834212996128086  1.0000
  H   H84       1.0  0.038517090247630385  0.5851013879784047  0.4839531512874302  1.0000
  H   H85       1.0  0.883208149689082  0.5340110347962365  0.4641509660848868  1.0000
  H   H86       1.0  0.7317805259218204  0.5479073367151842  0.4714350269650467  1.0000
  H   H87       1.0  0.8119514369476164  0.7431634901696709  0.5693692634842691  1.0000
  H   H88       1.0  0.9681103179768299  0.738250054302675  0.5668463944759737  1.0000
  H   H89       1.0  0.31031914236707075  0.985869042500617  0.3895169606506457  1.0000
  H   H90       1.0  0.3293973929030543  0.2572330087473063  0.37226188676694244  1.0000
  H   H91       1.0  0.34533209372094115  0.2458486960504089  0.2872725325318726  1.0000
  H   H92       1.0  0.3649318364653593  0.20385393367326535  0.2029407258792517  1.0000
  H   H93       1.0  0.3777614637499409  0.13097649809803608  0.1273401480328147  1.0000
  H   H94       1.0  0.3446066898190239  0.8873752382510957  0.1964320774318722  1.0000
  H   H95       1.0  0.4636240318575701  0.9661917578613951  0.3026324737350521  1.0000
  H   H96       1.0  0.3990856385804449  0.8617960215101163  0.28271589493613897  1.0000
  H   H97       1.0  0.3883538379664699  0.8940247777383589  0.3407987806171491  1.0000
  H   H98       1.0  0.18286827369946934  0.9107066728282331  0.2824178464257798  1.0000
  H   H99       1.0  0.22340353021710513  0.8607788747913574  0.32887067693989275  1.0000
  H   H100      1.0  0.23431341017421667  0.829167401956532  0.2704720387411825  1.0000
  H   H101      1.0  0.38832788215905367  0.5194509962306241  0.6101600141541397  1.0000
  H   H102      1.0  0.4106072136077827  0.26173544345908073  0.6295006394117025  1.0000
  H   H103      1.0  0.4070930080612881  0.27758742950413046  0.7148767618637065  1.0000
  H   H104      1.0  0.392421366935487  0.3225263369789743  0.8004348166281403  1.0000
  H   H105      1.0  0.3654006415078184  0.3916886633140279  0.8749335965708553  1.0000
  H   H106      1.0  0.3459950055784873  0.6166705988470156  0.8016460597287747  1.0000
  H   H107      1.0  0.513416843461691  0.6188533797834239  0.7139050563037443  1.0000
  H   H108      1.0  0.4458380217237874  0.685472434997763  0.7273645216985614  1.0000
  H   H109      1.0  0.4592216865401966  0.6563547079486723  0.6688085178025672  1.0000
  H   H110      1.0  0.23083536771298444  0.5132102167206298  0.7003410551918208  1.0000
  H   H111      1.0  0.29170300378654457  0.5923386187200846  0.6598913771563915  1.0000
  H   H112      1.0  0.27913325446317566  0.6234816659050464  0.7180650776098786  1.0000
  H   H113      1.0  0.1425933748217219  0.06379386941915038  0.494551166510405  1.0000
  H   H114      1.0  0.9898285339668218  0.07558061418563258  0.5044866331348814  1.0000
  H   H115      1.0  0.0925208688089114  0.26212666740335067  0.6137567554535012  1.0000
  H   H116      1.0  0.24007369035352602  0.24276975772050946  0.5993463080612429  1.0000
  H   H117      1.0  0.9359426781891925  0.22827828688726018  0.593245053419615  1.0000
  H   H118      1.0  0.7534553630202863  0.08708469842891728  0.49281889289908076  1.0000
  H   H119      1.0  0.673749255551108  0.2096525147767565  0.5900243711210464  1.0000
  H   H120      1.0  0.5209618688637718  0.22285944331068916  0.5887557793669131  1.0000
  H   H121      1.0  0.46087047228738925  0.08294661873171799  0.4666101235321847  1.0000
  H   H122      1.0  0.6114750156908713  0.0637031446025489  0.46224581782225727  1.0000
  H   H123      1.0  0.5632271797691712  0.41111295707202083  0.5192648165201987  1.0000
  H   H124      1.0  0.7109999543759004  0.39259083427207736  0.5146076400653286  1.0000
  H   H125      1.0  0.630257464256914  0.25024244029832937  0.38661977438706435  1.0000
  H   H126      1.0  0.48323158790440596  0.27327981381689886  0.3971767349265747  1.0000
  H   H127      1.0  0.7794489319768018  0.2654544735511379  0.41657451841539483  1.0000
  H   H128      1.0  0.9614786154595335  0.41490085281473904  0.5160350415383164  1.0000
  H   H129      1.0  0.11678253374408601  0.4659911228002045  0.5358410393319204  1.0000
  H   H130      1.0  0.268209647825941  0.4520909159960311  0.5285625240313578  1.0000
  H   H131      1.0  0.1880487222169762  0.25683687610170125  0.4306265544956105  1.0000
  H   H132      1.0  0.0318880293332882  0.2617548278205746  0.4331428381335698  1.0000
  H   H133      1.0  0.31033753592052454  0.4858823562358197  0.1104796903271179  1.0000
  H   H134      1.0  0.3294104815197514  0.7572443407050355  0.1277372921728457  1.0000
  H   H135      1.0  0.3453405719214829  0.7458525998758461  0.21272662137311468  1.0000
  H   H136      1.0  0.36493289818315594  0.7038536215704595  0.2970571182372765  1.0000
  H   H137      1.0  0.3777613075042083  0.6309735263312531  0.3726579203708624  1.0000
  H   H138      1.0  0.3446084496321262  0.38737511139594  0.30356584340344733  1.0000
  H   H139      1.0  0.46363275597873593  0.466197526071383  0.1973656710358824  1.0000
  H   H140      1.0  0.39909359720895304  0.3618001250589487  0.2172808492153706  1.0000
  H   H141      1.0  0.38836537540513655  0.394031918778431  0.1591985793534718  1.0000
  H   H142      1.0  0.1828742126986498  0.4107081400385652  0.2175803359907249  1.0000
  H   H143      1.0  0.22341313013637892  0.36077992761750727  0.1711271755776309  1.0000
  H   H144      1.0  0.23432615349166502  0.32917136757968996  0.22952727438376996  1.0000
  H   H145      1.0  0.38833531213099093  0.019448783920878995  0.8898383299151719  1.0000
  H   H146      1.0  0.41060672011417404  0.7617312056021035  0.8704997983290994  1.0000
  H   H147      1.0  0.407078084840549  0.777576673972959  0.7851232836595515  1.0000
  H   H148      1.0  0.39240496457358626  0.8225170742209682  0.6995668527507561  1.0000
  H   H149      1.0  0.3653892614963682  0.8916801554873502  0.625066884194318  1.0000
  H   H150      1.0  0.34598893920256285  0.11666636364174819  0.6983541735565169  1.0000
  H   H151      1.0  0.513413457093236  0.11884113898518217  0.7860934065920162  1.0000
  H   H152      1.0  0.4458396109873775  0.18546376228199082  0.7726332838954093  1.0000
  H   H153      1.0  0.45921962873492816  0.1563449364133334  0.8311893417886581  1.0000
  H   H154      1.0  0.2308324888163398  0.013206835359376596  0.7996590320378446  1.0000
  H   H155      1.0  0.2917006548268402  0.09233258060609728  0.8401084904940959  1.0000
  H   H156      1.0  0.27913052983569026  0.12347795201799978  0.7819347247676233  1.0000
  H   H157      1.0  0.14259122090658144  0.5637876356682553  0.005447827554675699  1.0000
  H   H158      1.0  0.9898243474147818  0.5755676042301515  0.9955095940404348  1.0000
  H   H159      1.0  0.09251880205204807  0.7621156303588491  0.8862370812148513  1.0000
  H   H160      1.0  0.24007286057997124  0.7427636807897853  0.9006486993387668  1.0000
  H   H161      1.0  0.9359460777295535  0.7282806139309483  0.9067556726515704  1.0000
  H   H162      1.0  0.7534571317728477  0.5870791483362581  0.007177376636384701  1.0000
  H   H163      1.0  0.673749985452538  0.7096372067820197  0.9099688925584104  1.0000
  H   H164      1.0  0.5209625150955829  0.7228460596445456  0.9112360131449577  1.0000
  H   H165      1.0  0.4608739483154308  0.5829503730798319  0.0333901968062875  1.0000
  H   H166      1.0  0.6114790939133242  0.5637048833329744  0.03775392667183299  1.0000
  H   H167      1.0  0.5632406805202591  0.9111063466743231  0.980730577089993  1.0000
  H   H168      1.0  0.7110161368534091  0.8925893808537211  0.9853913463084966  1.0000
  H   H169      1.0  0.6302693739187645  0.7502468639492433  0.1133809063169053  1.0000
  H   H170      1.0  0.4832435128076538  0.7732837755477246  0.1028227586396397  1.0000
  H   H171      1.0  0.7794670260042906  0.7654679729904853  0.08342892628579791  1.0000
  H   H172      1.0  0.9614880505980352  0.914901910626618  0.9839586195429675  1.0000
  H   H173      1.0  0.11679315812180856  0.9659867069606703  0.9641512172294497  1.0000
  H   H174      1.0  0.2682218961714611  0.952090294344728  0.971432252005897  1.0000
  H   H175      1.0  0.1880498999668134  0.7568237193662667  0.0693638776398871  1.0000
  H   H176      1.0  0.031891956598322245  0.7617424106494538  0.0668461691864408  1.0000
  C   C1        1.0  0.682064241844827  0.45854018109199757  0.8665010911805879  1.0000
  C   C2        1.0  0.6804560919717347  0.3776319868964181  0.8858407355679744  1.0000
  C   C3        1.0  0.6719481030441371  0.30502813064654777  0.8570281858289803  1.0000
  C   C4        1.0  0.6626598467864468  0.3111992518921269  0.8092991973343686  1.0000
  C   C5        1.0  0.6399711131228331  0.3653071660019762  0.7018159249529248  1.0000
  C   C6        1.0  0.6326790352395051  0.40526836889692663  0.6598535679816705  1.0000
  C   C7        1.0  0.6377093474038061  0.4938901411864761  0.6582101651049683  1.0000
  C   C8        1.0  0.6510392020037159  0.5438272224371943  0.69913288862125  1.0000
  C   C9        1.0  0.6587258622489145  0.5047102782014078  0.741135101913379  1.0000
  C   C10       1.0  0.6529867198922898  0.4153130783698557  0.7423823460775907  1.0000
  C   C11       1.0  0.6627580570244191  0.3910583375842193  0.7902839741205341  1.0000
  C   C12       1.0  0.673646829745401  0.4649841826059458  0.8188656817949251  1.0000
  C   C13       1.0  0.6741774415063517  0.5443959382283979  0.7897637580363437  1.0000
  C   C14       1.0  0.6012046188481648  0.582606652914066  0.8048273459802644  1.0000
  C   C15       1.0  0.7640709693864592  0.615278607300965  0.7930516051689409  1.0000
  C   C16       1.0  0.6834011280986728  0.3673080908387192  0.9372117994719105  1.0000
  C   C17       1.0  0.6285926696907679  0.5347491546870201  0.6126272456738491  1.0000
  C   C18       1.0  0.6085868105003412  0.03247342461113329  0.1337498260267367  1.0000
  C   C19       1.0  0.5996804382674198  0.11012415734673908  0.1149973478982318  1.0000
  C   C20       1.0  0.5942152386647805  0.1778404351005634  0.14443450708778022  1.0000
  C   C21       1.0  0.5978614022272593  0.16960301046505316  0.19235760670135701  1.0000
  C   C22       1.0  0.6190181945261203  0.1139358432722801  0.3003621690533365  1.0000
  C   C23       1.0  0.6336493613469897  0.07572746359917197  0.3417176134047111  1.0000
  C   C24       1.0  0.6466490777645646  0.9932505132334838  0.3419442333441225  1.0000
  C   C25       1.0  0.6447848748734374  0.9477308869730408  0.3001806294183709  1.0000
  C   C26       1.0  0.6316306730549287  0.9858254011330984  0.2588515235620505  1.0000
  C   C27       1.0  0.6190438193640516  0.06905469720094  0.2587715123223475  1.0000
  C   C28       1.0  0.6087117940448579  0.09332353214986712  0.21085671473057488  1.0000
  C   C29       1.0  0.614052296738265  0.024769412266337585  0.1814531774415968  1.0000
  C   C30       1.0  0.6268605624316878  0.94947724420998  0.2097843912892543  1.0000
  C   C31       1.0  0.5473111264444768  0.8670565566505316  0.2047146826954531  1.0000
  C   C32       1.0  0.7115657392631363  0.9290517204165168  0.1962215140740398  1.0000
  C   C33       1.0  0.5988965212753569  0.12163327556370257  0.0636609368779659  1.0000
  C   C34       1.0  0.6603563155076203  0.9521908771642061  0.38669946678547973  1.0000
  C   C35       1.0  0.872276429887691  0.39361238993443953  0.0207055653906068  1.0000
  C   C36       1.0  0.95622020490822  0.38755373793360076  0.026395151810213197  1.0000
  C   C37       1.0  0.9710654573534042  0.33095927671578096  0.06041765310693851  1.0000
  C   C38       1.0  0.8994087360941448  0.2829832642372025  0.0871527509438508  1.0000
  C   C39       1.0  0.8173316282297022  0.2931705553199392  0.0792958741071601  1.0000
  C   C40       1.0  0.05733094877046343  0.32035386649096864  0.0678444706864028  1.0000
  C   C41       1.0  0.2599574139435674  0.3779213764496843  0.023172615723495903  1.0000
  C   C42       1.0  0.3461938978837367  0.3654125634693911  0.0261937501220402  1.0000
  C   C43       1.0  0.3719224996762803  0.31979261522447894  0.0623398139887144  1.0000
  C   C44       1.0  0.45591930141537773  0.31197437627595553  0.061634320500886  1.0000
  C   C45       1.0  0.48940736296034254  0.3895712279521105  0.9929132768033639  1.0000
  C   C46       1.0  0.4066069496135611  0.40034848481237617  0.9907364515016468  1.0000
  C   C47       1.0  0.41999600422388267  0.12430336110021756  0.9903789162746008  1.0000
  C   C48       1.0  0.3369864061441277  0.13417774184788558  0.987539397420548  1.0000
  C   C49       1.0  0.3165200191050914  0.17920362188570485  0.9496218600040081  1.0000
  C   C50       1.0  0.3822194098202941  0.21356769371715956  0.9164220517258953  1.0000
  C   C51       1.0  0.463800193500731  0.2009492952091065  0.9220017842012282  1.0000
  C   C52       1.0  0.2302958278267084  0.19106650786682164  0.9441388398880123  1.0000
  C   C53       1.0  0.026228709568066205  0.12788186573987298  0.9887909526377783  1.0000
  C   C54       1.0  0.9382132926279209  0.13574118065223217  0.9849309860548203  1.0000
  C   C55       1.0  0.8707559806575843  0.08198728289460179  0.0123306212934438  1.0000
  C   C56       1.0  0.786511491611634  0.08877216387124777  0.0083615475349674  1.0000
  C   C57       1.0  0.8314696908435054  0.1978520845223315  0.9531844360950998  1.0000
  C   C58       1.0  0.9172999855366938  0.19506131468330065  0.9546857196712821  1.0000
  C   C59       1.0  0.6820658348277886  0.9585401806738076  0.6335060853603949  1.0000
  C   C60       1.0  0.6804524691994303  0.8776302948907215  0.6141653719695981  1.0000
  C   C61       1.0  0.6719404032914865  0.8050245613727325  0.6429778903993794  1.0000
  C   C62       1.0  0.662655236441438  0.8111935885538842  0.6907068952812594  1.0000
  C   C63       1.0  0.6399629725529578  0.8652988887175965  0.7981890181488467  1.0000
  C   C64       1.0  0.6326769271191495  0.9052613955353264  0.8401522930283534  1.0000
  C   C65       1.0  0.6377107845118246  0.9938825479864163  0.8417956807629992  1.0000
  C   C66       1.0  0.6510474691461638  0.0438214065614346  0.8008735867827639  1.0000
  C   C67       1.0  0.6587315566695648  0.004706463389453595  0.7588711438234483  1.0000
  C   C68       1.0  0.6529918627998015  0.9153076886402757  0.7576230421710051  1.0000
  C   C69       1.0  0.6627582305439503  0.8910550138590237  0.7097204252516462  1.0000
  C   C70       1.0  0.6736530895804691  0.964985362906546  0.6811408131235765  1.0000
  C   C71       1.0  0.674181509108841  0.044394907061572994  0.7102415755764254  1.0000
  C   C72       1.0  0.6012097960112823  0.08260655664550139  0.6951791956041404  1.0000
  C   C73       1.0  0.7640751598414466  0.11527568827337116  0.7069541084858102  1.0000
  C   C74       1.0  0.6833985609598798  0.8673053791192943  0.5627950281692122  1.0000
  C   C75       1.0  0.6285941773756816  0.034743641003998994  0.8873783216118696  1.0000
  C   C76       1.0  0.6085785707181939  0.5324788748352132  0.36625005077169703  1.0000
  C   C77       1.0  0.5996778638484486  0.6101306676223218  0.3850029625639309  1.0000
  C   C78       1.0  0.5942111624165918  0.6778467931591122  0.3555641807397548  1.0000
  C   C79       1.0  0.5978517168750769  0.6696049303162112  0.30764075042593925  1.0000
  C   C80       1.0  0.6190042551835971  0.6139350622369618  0.1996356172151081  1.0000
  C   C81       1.0  0.6336390430983627  0.575724228912506  0.1582812961409914  1.0000
  C   C82       1.0  0.6466428576706491  0.4932502371418506  0.1580540579041596  1.0000
  C   C83       1.0  0.6447756535345447  0.44773306754687064  0.1998178445282974  1.0000
  C   C84       1.0  0.6316171319195333  0.48582547844780066  0.2411472075758851  1.0000
  C   C85       1.0  0.619029262738877  0.5690538177609242  0.2412281790329871  1.0000
  C   C86       1.0  0.608696935679333  0.5933217979931769  0.28914327467848006  1.0000
  C   C87       1.0  0.6140395095698777  0.5247697885583021  0.3185473985551823  1.0000
  C   C88       1.0  0.6268475145475206  0.449477108934225  0.2902148464883112  1.0000
  C   C89       1.0  0.5472971038027409  0.36705761413944765  0.2952831348964366  1.0000
  C   C90       1.0  0.7115502962721933  0.4290526037434787  0.3037791696648355  1.0000
  C   C91       1.0  0.5988967767042083  0.621636974094997  0.4363403726002772  1.0000
  C   C92       1.0  0.6603541025175944  0.4521914610953104  0.11330065585493541  1.0000
  C   C93       1.0  0.8722945205810718  0.8936279606707698  0.4792897085720327  1.0000
  C   C94       1.0  0.9562336200383115  0.8875615393573423  0.4735997833047207  1.0000
  C   C95       1.0  0.9710722477943532  0.830966273004229  0.4395763953372906  1.0000
  C   C96       1.0  0.899414540952506  0.782992017099822  0.4128438702829129  1.0000
  C   C97       1.0  0.8173418056117114  0.7931818388416332  0.4207017552806747  1.0000
  C   C98       1.0  0.05734032296653891  0.8203564914574742  0.4321514805592059  1.0000
  C   C99       1.0  0.2599658500732716  0.8779186478434297  0.4768274395296004  1.0000
  C   C100      1.0  0.34620131425047873  0.8654040269283172  0.47380979371011017  1.0000
  C   C101      1.0  0.37193255964277233  0.8197828152497664  0.4376662200783414  1.0000
  C   C102      1.0  0.4559268956141125  0.8119625747278219  0.43837554040351995  1.0000
  C   C103      1.0  0.48940875429711633  0.8895643743846617  0.5070943022716747  1.0000
  C   C104      1.0  0.40660786053067005  0.9003422341041655  0.5092690172215129  1.0000
  C   C105      1.0  0.4199851699576838  0.6242975589618492  0.5096268606791909  1.0000
  C   C106      1.0  0.33697608550227903  0.6341738460601435  0.5124660065343036  1.0000
  C   C107      1.0  0.3165109767310668  0.6792016724451599  0.5503824196780087  1.0000
  C   C108      1.0  0.3822068207624198  0.7135573039682227  0.5835849320957323  1.0000
  C   C109      1.0  0.4637867648565005  0.7009357435232102  0.5780038563237255  1.0000
  C   C110      1.0  0.23028869292249957  0.6910670903769895  0.5558650730283503  1.0000
  C   C111      1.0  0.02622137489874632  0.6278838862012391  0.5112126966282986  1.0000
  C   C112      1.0  0.9382033005333736  0.6357385428569768  0.5150732047000801  1.0000
  C   C113      1.0  0.8707463799446912  0.5819853621082912  0.487673826757657  1.0000
  C   C114      1.0  0.7865038868187922  0.5887708551564116  0.4916418515013419  1.0000
  C   C115      1.0  0.8314551142638746  0.6978416644027091  0.5468227496298894  1.0000
  C   C116      1.0  0.9172870727741226  0.6950522475339651  0.5453217996945128  1.0000
  C   C117      1.0  0.31792860285256097  0.041455545017903696  0.3664945850153599  1.0000
  C   C118      1.0  0.3195404642925723  0.1223667047044685  0.38583391201419903  1.0000
  C   C119      1.0  0.3280508955142665  0.1949711123644491  0.3570203537959316  1.0000
  C   C120      1.0  0.3373396985408164  0.18879954779040983  0.309292042107451  1.0000
  C   C121      1.0  0.360029699949976  0.13469291136090078  0.2018102658454879  1.0000
  C   C122      1.0  0.36731241691374805  0.09472970002520499  0.15984733757270672  1.0000
  C   C123      1.0  0.3622823261954622  0.0061086099427001  0.1582042964280035  1.0000
  C   C124      1.0  0.34894897002443775  0.9561704558793876  0.1991267369978971  1.0000
  C   C125      1.0  0.3412652616381138  0.9952867041281904  0.2411291799538873  1.0000
  C   C126      1.0  0.34700558329423353  0.08468548927890399  0.2423765884085896  1.0000
  C   C127      1.0  0.33723790092019357  0.10894009049265921  0.29027885872888964  1.0000
  C   C128      1.0  0.3263440487902896  0.03501105690784809  0.3188595106468313  1.0000
  C   C129      1.0  0.3258160674696455  0.9556008706065738  0.2897590947924585  1.0000
  C   C130      1.0  0.39878614585069283  0.9173878951364784  0.30482355435994174  1.0000
  C   C131      1.0  0.2359212916622369  0.8847226683531557  0.29304760167512  1.0000
  C   C132      1.0  0.31659644543618265  0.13269230419702888  0.4372046024070002  1.0000
  C   C133      1.0  0.37139737006253176  0.9652507380422719  0.11262096237994969  1.0000
  C   C134      1.0  0.3914178340781902  0.46752792322823905  0.633749579784009  1.0000
  C   C135      1.0  0.4003233145390368  0.3898775082818203  0.6149970145770213  1.0000
  C   C136      1.0  0.4057899569036181  0.32216332997122504  0.6444351032012108  1.0000
  C   C137      1.0  0.4021529795543443  0.33040460264743376  0.6923585335084397  1.0000
  C   C138      1.0  0.3809987351222333  0.386068597874754  0.8003643599305975  1.0000
  C   C139      1.0  0.3663694076522006  0.42427887221524674  0.8417190275922054  1.0000
  C   C140      1.0  0.3533610681246273  0.5067501914574278  0.8419466124421078  1.0000
  C   C141      1.0  0.35522733675111334  0.5522705925460726  0.8001842122065385  1.0000
  C   C142      1.0  0.36838146391210097  0.5141781088812748  0.7588545025703864  1.0000
  C   C143      1.0  0.38097140600353896  0.4309504532955372  0.7587731845093089  1.0000
  C   C144      1.0  0.3913045504213386  0.4066831360063716  0.7108570490662132  1.0000
  C   C145      1.0  0.38595632651080075  0.47523505188054566  0.6814532718000664  1.0000
  C   C146      1.0  0.3731510222168382  0.5505284256210459  0.7097861704579741  1.0000
  C   C147      1.0  0.45269986970262716  0.6329511415423567  0.7047161490560967  1.0000
  C   C148      1.0  0.2884458598513859  0.5709554889733469  0.6962235802726155  1.0000
  C   C149      1.0  0.4010998767279972  0.37836852928067083  0.5636599511537526  1.0000
  C   C150      1.0  0.33964849628445387  0.5478043997226008  0.8867014008957098  1.0000
  C   C151      1.0  0.12771553059918966  0.1063914020471302  0.5206988307881133  1.0000
  C   C152      1.0  0.043773149382580805  0.1124486774087927  0.5263908356691758  1.0000
  C   C153      1.0  0.0289308140261468  0.16904193417337857  0.560413877050273  1.0000
  C   C154      1.0  0.10058545339039429  0.21702068507964606  0.5871464021026469  1.0000
  C   C155      1.0  0.18266133996576167  0.20683740950308754  0.5792895568800844  1.0000
  C   C156      1.0  0.942659279902834  0.1796484114563413  0.5678377520475949  1.0000
  C   C157      1.0  0.7400327458659461  0.12208493958576838  0.5231631794746505  1.0000
  C   C158      1.0  0.6537908610043386  0.1345903625476552  0.5261856777002691  1.0000
  C   C159      1.0  0.628067148954116  0.18021169895712313  0.5623306377082997  1.0000
  C   C160      1.0  0.544073819859143  0.18803325491361988  0.5616254765566778  1.0000
  C   C161      1.0  0.5105822244186625  0.11042804703074438  0.49290671471607084  1.0000
  C   C162      1.0  0.5933818035821119  0.09965211376876229  0.49072888038167417  1.0000
  C   C163      1.0  0.580012229445863  0.3757040604099017  0.4903689573042342  1.0000
  C   C164      1.0  0.6630201174395507  0.3658258053230056  0.4875273852681588  1.0000
  C   C165      1.0  0.6834812699678209  0.3207972640310004  0.44961062553617376  1.0000
  C   C166      1.0  0.6177804503731393  0.28643310787742843  0.4164136587165502  1.0000
  C   C167      1.0  0.5361991792791015  0.29905010053481357  0.4219968140893045  1.0000
  C   C168      1.0  0.7697061239655341  0.30892994045724714  0.44412831878213405  1.0000
  C   C169      1.0  0.9737750890825791  0.37212096474553386  0.48877549619080446  1.0000
  C   C170      1.0  0.06179253565824184  0.3642662976851271  0.4849160279149629  1.0000
  C   C171      1.0  0.12924574860954857  0.4180174688108735  0.5123188718511216  1.0000
  C   C172      1.0  0.2134895563384518  0.41123004930522455  0.5083539664919883  1.0000
  C   C173      1.0  0.16854272336083648  0.30215931283531455  0.4531720285592513  1.0000
  C   C174      1.0  0.0827119022988185  0.30495264496892094  0.4546691659046047  1.0000
  C   C175      1.0  0.3179468504750744  0.5414655613345687  0.1335037383182822  1.0000
  C   C176      1.0  0.319555758615607  0.6223763656775178  0.11416478712062879  1.0000
  C   C177      1.0  0.3280668273673371  0.6949822211237516  0.1429773368491496  1.0000
  C   C178      1.0  0.3373528211524217  0.6888097636186287  0.1907059787530088  1.0000
  C   C179      1.0  0.36003011195514734  0.6346925684495871  0.2981878647841896  1.0000
  C   C180      1.0  0.36731207394056026  0.5947266522486598  0.3401505683844945  1.0000
  C   C181      1.0  0.3622790020286501  0.5061061330720094  0.341792584871996  1.0000
  C   C182      1.0  0.348950592556541  0.456169725150275  0.30086986135130195  1.0000
  C   C183      1.0  0.341268895477711  0.4952886997714073  0.2588673014463865  1.0000
  C   C184      1.0  0.3470106794406504  0.5846885409361917  0.2576207504677868  1.0000
  C   C185      1.0  0.3372464374563151  0.6089440486115123  0.20971877580987552  1.0000
  C   C186      1.0  0.32635892028114455  0.5350182243678391  0.1811384545254882  1.0000
  C   C187      1.0  0.32582353494589  0.45560509092034346  0.2102382987078784  1.0000
  C   C188      1.0  0.3987953506940939  0.41739306076883037  0.19517401757227762  1.0000
  C   C189      1.0  0.23592850287070624  0.38472369574499504  0.2069497583797073  1.0000
  C   C190      1.0  0.31660337869833194  0.6327007895270638  0.0627940698297138  1.0000
  C   C191      1.0  0.37139549016978896  0.4652464670299352  0.3873758509029628  1.0000
  C   C192      1.0  0.3914196854975387  0.9675250983587346  0.8662498045230791  1.0000
  C   C193      1.0  0.400325240382287  0.8898737026894421  0.8850022826546179  1.0000
  C   C194      1.0  0.4057895635728457  0.8221587092312461  0.8555640836699325  1.0000
  C   C195      1.0  0.4021442173551719  0.8303967967973164  0.8076413306515065  1.0000
  C   C196      1.0  0.3809883014784816  0.8860626797038477  0.6996367683001026  1.0000
  C   C197      1.0  0.36635732422615763  0.9242717119153594  0.6582813239470654  1.0000
  C   C198      1.0  0.3533562217682373  0.0067460417446554  0.6580533176229153  1.0000
  C   C199      1.0  0.35521998646172637  0.0522663101607392  0.6998155351556363  1.0000
  C   C200      1.0  0.3683770785291002  0.014173142652374796  0.7411453341995156  1.0000
  C   C201      1.0  0.3809646904739666  0.9309464567193897  0.7412274250216981  1.0000
  C   C202      1.0  0.3912930081894075  0.9066756121788158  0.7891422226253226  1.0000
  C   C203      1.0  0.38595539575158694  0.9752310787203057  0.8185457599054827  1.0000
  C   C204      1.0  0.37314631272680293  0.05052258385860849  0.7902128130699211  1.0000
  C   C205      1.0  0.45269769113362196  0.13294135539023696  0.7952818284668339  1.0000
  C   C206      1.0  0.28844252194242154  0.07095072819473099  0.8037763834734974  1.0000
  C   C207      1.0  0.40111048434405927  0.8783691522319471  0.9363397334578282  1.0000
  C   C208      1.0  0.3396454659798778  0.04780432075129681  0.6132991239863159  1.0000
  C   C209      1.0  0.1277121681873084  0.6063825896425213  0.9792971845882974  1.0000
  C   C210      1.0  0.043768949552770726  0.6124367050853934  0.9736048253906873  1.0000
  C   C211      1.0  0.02892331798395287  0.6690298612389184  0.9395809377045339  1.0000
  C   C212      1.0  0.10058243218345095  0.7170098097103473  0.9128489592386089  1.0000
  C   C213      1.0  0.1826583559091758  0.7068270448153268  0.9207058360691676  1.0000
  C   C214      1.0  0.9426559432078462  0.6796352402590954  0.9321561997183281  1.0000
  C   C215      1.0  0.7400334466107592  0.6220749393930731  0.976829787649784  1.0000
  C   C216      1.0  0.6537961452955302  0.6345830894146474  0.9738114260397736  1.0000
  C   C217      1.0  0.628069237293488  0.6802024163257839  0.9376632825815109  1.0000
  C   C218      1.0  0.5440750771708023  0.6880232966169187  0.9383684294603896  1.0000
  C   C219      1.0  0.5105858905409519  0.6104290238897574  0.0070915527445123  1.0000
  C   C220      1.0  0.5933841718995866  0.5996530305189153  0.0092690712447805  1.0000
  C   C221      1.0  0.5800217326660331  0.8756972961421566  0.0096276462106317  1.0000
  C   C222      1.0  0.663032088989695  0.8658255255199591  0.012470284441739898  1.0000
  C   C223      1.0  0.68349288508945  0.8207976047077564  0.050387475276068  1.0000
  C   C224      1.0  0.6177914214769158  0.7864328491614214  0.0835862437653958  1.0000
  C   C225      1.0  0.536210886479367  0.7990499530254951  0.07800235211374938  1.0000
  C   C226      1.0  0.769718331917005  0.8089347395078262  0.0558715351838828  1.0000
  C   C227      1.0  0.9737842537240127  0.8721174136555588  0.011215956458585198  1.0000
  C   C228      1.0  0.06179879424870904  0.8642593830357013  0.015075229844590898  1.0000
  C   C229      1.0  0.12925390284062388  0.9180099973326176  0.9876731684297084  1.0000
  C   C230      1.0  0.21349607036014362  0.9112257273351432  0.9916398160046995  1.0000
  C   C231      1.0  0.16854735921631211  0.8021505095665945  0.0468197002005866  1.0000
  C   C232      1.0  0.08271335689583749  0.8049392697920724  0.0453208428235712  1.0000
  N   N1        1.0  0.8040058549397742  0.3470899630351951  0.0465887147888822  1.0000
  N   N2        1.0  0.12422443439431421  0.36654045742566405  0.04449877023780859  1.0000
  N   N3        1.0  0.20092939360327478  0.347962266790958  0.0547808222815149  1.0000
  N   N4        1.0  0.5139197274580525  0.3463382521891559  0.027586056464684802  1.0000
  N   N5        1.0  0.4820946927240825  0.15695702739948564  0.9581894527625748  1.0000
  N   N6        1.0  0.16624177387343758  0.15055070077988117  0.9711362818429308  1.0000
  N   N7        1.0  0.0889706566522079  0.16890910838233705  0.9611620106330606  1.0000
  N   N8        1.0  0.7671063554695722  0.14575107268253615  0.9794738008445165  1.0000
  N   N9        1.0  0.8040214269583642  0.8471020546409065  0.45341084477603744  1.0000
  N   N10       1.0  0.12423096274251576  0.8665387248744165  0.455495675446734  1.0000
  N   N11       1.0  0.20094120269676813  0.847958855797195  0.4452168297674248  1.0000
  N   N12       1.0  0.5139249082944204  0.8463284044638896  0.4724241155824132  1.0000
  N   N13       1.0  0.4820824757287241  0.6569480339220347  0.5418162776260829  1.0000
  N   N14       1.0  0.1662341090879593  0.6505588967065917  0.5288645968519603  1.0000
  N   N15       1.0  0.08896241923584111  0.6689158191459439  0.538838784362639  1.0000
  N   N16       1.0  0.7670951791482068  0.6457424738845887  0.52053282263455  1.0000
  N   N17       1.0  0.1959847860664539  0.1529126986738021  0.5465835867704243  1.0000
  N   N18       1.0  0.8757716609274127  0.13347012450263654  0.5444883581731546  1.0000
  N   N19       1.0  0.7990612904450028  0.15204739379022664  0.5547706698396198  1.0000
  N   N20       1.0  0.48607335512424743  0.15366543636708485  0.5275779411814554  1.0000
  N   N21       1.0  0.5179084439332228  0.3430463347320797  0.4581826597689229  1.0000
  N   N22       1.0  0.8337646888133958  0.3494518375030324  0.4711211697635065  1.0000
  N   N23       1.0  0.9110348030465473  0.3310916419794907  0.4611466356643135  1.0000
  N   N24       1.0  0.2329020306699832  0.3542584929331126  0.47946472834147613  1.0000
  N   N25       1.0  0.1959833709114918  0.6529050269339223  0.9534143817868426  1.0000
  N   N26       1.0  0.8757649687260313  0.6334486909274447  0.9554994739741077  1.0000
  N   N27       1.0  0.7990568705920393  0.6520268295606968  0.9452201947227721  1.0000
  N   N28       1.0  0.4860754093921997  0.6536620308479613  0.9724177332845159  1.0000
  N   N29       1.0  0.5179207817134  0.8430422936021171  0.041814683542789104  1.0000
  N   N30       1.0  0.8337737005102567  0.8494486201716569  0.028873400033440095  1.0000
  N   N31       1.0  0.9110442490426676  0.8310882549696216  0.0388459382573529  1.0000
  N   N32       1.0  0.23290692793265322  0.8542514590534508  0.020528255870282  1.0000
  O   O1        1.0  0.688801486681598  0.43317819423057097  0.963159041611128  1.0000
  O   O2        1.0  0.677943147743271  0.2925158494953591  0.9546340592532586  1.0000
  O   O3        1.0  0.6225747284271179  0.6126547023936694  0.613319958973726  1.0000
  O   O4        1.0  0.6274606170333995  0.49278213785218117  0.5753205394542463  1.0000
  O   O5        1.0  0.5913083729519926  0.05553991901852129  0.03759308371645889  1.0000
  O   O6        1.0  0.6076271594033783  0.19723041065915933  0.0466060625730051  1.0000
  O   O7        1.0  0.677015601924829  0.9976399280292866  0.42353753208371353  1.0000
  O   O8        1.0  0.6530461966637375  0.8706377535512287  0.38584111529689846  1.0000
  O   O9        1.0  0.6887999916248048  0.9331779086229516  0.5368461235962982  1.0000
  O   O10       1.0  0.677943808851431  0.7925147990052748  0.5453716925009502  1.0000
  O   O11       1.0  0.6225798266721793  0.11264861106285201  0.8866842955544953  1.0000
  O   O12       1.0  0.6274676127091325  0.9927783619405586  0.9246843150624429  1.0000
  O   O13       1.0  0.5913104442414435  0.5555425359432531  0.46240712569551323  1.0000
  O   O14       1.0  0.6076307915819186  0.6972358108534776  0.4533952657708795  1.0000
  O   O15       1.0  0.6770370950925082  0.49764935055689097  0.0764654636229949  1.0000
  O   O16       1.0  0.6530281420168862  0.37063546232542416  0.11416108482085721  1.0000
  O   O17       1.0  0.31119822507311307  0.0668243736324357  0.46315523995510693  1.0000
  O   O18       1.0  0.32205157669852  0.20748418940350885  0.4546262050809986  1.0000
  O   O19       1.0  0.3774233408691074  0.8873492074015702  0.1133142952092854  1.0000
  O   O20       1.0  0.3725219923094725  0.0072179331335319955  0.0753156621262718  1.0000
  O   O21       1.0  0.4086926765622891  0.4444637239299353  0.5375925048467352  1.0000
  O   O22       1.0  0.39235895626094935  0.3027695781615378  0.54660644439101  1.0000
  O   O23       1.0  0.3229661905732542  0.5023445734457538  0.92353555333532  1.0000
  O   O24       1.0  0.3469709387264146  0.6293590414173378  0.8858433981272995  1.0000
  O   O25       1.0  0.3111986256781947  0.5668306133869905  0.0368447481109797  1.0000
  O   O26       1.0  0.3220538256982195  0.7074929061269939  0.0453718100648501  1.0000
  O   O27       1.0  0.37739766553232806  0.3873361124722478  0.3866820978517467  1.0000
  O   O28       1.0  0.372536841383635  0.507217534243317  0.4246815173001721  1.0000
  O   O29       1.0  0.40870334720469265  0.944465833856519  0.9624058536118412  1.0000
  O   O30       1.0  0.3923748830597447  0.8027699867605164  0.9533939145810066  1.0000
  O   O31       1.0  0.3229619324229986  0.0023470755621702  0.5764641781398013  1.0000
  O   O32       1.0  0.346972475809757  0.12935967226631107  0.6141564356396287  1.0000
