data_image0
_chemical_formula_structural       Zn16H144C240N12O52
_chemical_formula_sum              "Zn16 H144 C240 N12 O52"
_cell_length_a       25.840665302717106
_cell_length_b       25.84069457027523
_cell_length_c       41.28640621611434
_cell_angle_alpha    71.74908783528731
_cell_angle_beta     71.74905936681597
_cell_angle_gamma    59.983243603404766

_space_group_name_H-M_alt    "P 1"
_space_group_IT_number       1

loop_
  _space_group_symop_operation_xyz
  'x, y, z'

loop_
  _atom_site_type_symbol
  _atom_site_label
  _atom_site_symmetry_multiplicity
  _atom_site_fract_x
  _atom_site_fract_y
  _atom_site_fract_z
  _atom_site_occupancy
  Zn  Zn1       1.0  0.3542443488220072  0.3541790139853874  0.93743740319713  1.0000
  Zn  Zn2       1.0  0.14582098135648638  0.1457559054958395  0.5625628112087497  1.0000
  Zn  Zn3       1.0  0.6457561742452214  0.6458210315290386  0.0625625830086278  1.0000
  Zn  Zn4       1.0  0.8541790865214978  0.8542431205159106  0.4374374636895339  1.0000
  Zn  Zn5       1.0  0.40970995778882013  0.31355458533897  0.006157572000425746  1.0000
  Zn  Zn6       1.0  0.31355083075116846  0.27060588474729047  0.006172045749828202  1.0000
  Zn  Zn7       1.0  0.27064491762421733  0.40967998526104316  0.006191875656455246  1.0000
  Zn  Zn8       1.0  0.2293933486633577  0.18644996060884006  0.49382823879052035  1.0000
  Zn  Zn9       1.0  0.09032021247347898  0.22935495355318383  0.49380816471860817  1.0000
  Zn  Zn10      1.0  0.18644548145237386  0.0902901161755736  0.4938431722999965  1.0000
  Zn  Zn11      1.0  0.5902896549515545  0.6864470888588913  0.993841789155553  1.0000
  Zn  Zn12      1.0  0.6864501477687667  0.7293923279264902  0.9938279678892386  1.0000
  Zn  Zn13      1.0  0.7293560612263119  0.590321080349895  0.9938066105717168  1.0000
  Zn  Zn14      1.0  0.7706062639427173  0.8135496758785623  0.5061720057243732  1.0000
  Zn  Zn15      1.0  0.909679399636687  0.7706450899537459  0.5061929690553555  1.0000
  Zn  Zn16      1.0  0.8135545860485107  0.9097093169744642  0.5061577496003481  1.0000
  H   H1        1.0  0.4094779114705601  0.23452253414594534  0.8685079943359355  1.0000
  H   H2        1.0  0.23451938843600564  0.48751880074153325  0.8685679827803412  1.0000
  H   H3        1.0  0.48754085927345864  0.4095363422946863  0.868510854691216  1.0000
  H   H4        1.0  0.012480601005727  0.26548178793664334  0.6314312077811053  1.0000
  H   H5        1.0  0.09046339709264829  0.012460103865954898  0.6314887837745785  1.0000
  H   H6        1.0  0.26547755178369664  0.09052215798114101  0.6314924743107682  1.0000
  H   H7        1.0  0.5905221560664698  0.7654785291011947  0.13149236623148397  1.0000
  H   H8        1.0  0.7654815900994125  0.5124814495239319  0.1314313897568269  1.0000
  H   H9        1.0  0.5124592086406777  0.5904643138141663  0.1314888588741426  1.0000
  H   H10       1.0  0.9875190114815381  0.734517848431999  0.36856927899079767  1.0000
  H   H11       1.0  0.909536671002293  0.9875393298779114  0.368510926840699  1.0000
  H   H12       1.0  0.7345216055504763  0.9094780889819207  0.3685077398207355  1.0000
  H   H13       1.0  0.4534365112520362  0.14557214430205784  0.8399499790908465  1.0000
  H   H14       1.0  0.14552698627913677  0.5610623485557511  0.8400272101601587  1.0000
  H   H15       1.0  0.5610458984910522  0.45356317055546197  0.8399912549599547  1.0000
  H   H16       1.0  0.9389374038217609  0.3544735267819947  0.6599725762339546  1.0000
  H   H17       1.0  0.04643745462776389  0.9389544846652458  0.6600084035263265  1.0000
  H   H18       1.0  0.3544282782523637  0.04656347725068602  0.6600504346200465  1.0000
  H   H19       1.0  0.5465635565846155  0.8544276966988563  0.16005013626947567  1.0000
  H   H20       1.0  0.8544730816763249  0.4389374925639373  0.15997266294315435  1.0000
  H   H21       1.0  0.4389541694437398  0.5464370780588087  0.16000853837438458  1.0000
  H   H22       1.0  0.061062208624171894  0.6455269245758118  0.34002775099999377  1.0000
  H   H23       1.0  0.9535630686977471  0.061045153592132716  0.33999117793437966  1.0000
  H   H24       1.0  0.6455722448148576  0.9534365682637401  0.33994955158571116  1.0000
  H   H25       1.0  0.3548229054705132  0.13220691989050695  0.9648608351889223  1.0000
  H   H26       1.0  0.132229121839508  0.5480920830216577  0.9649312911324728  1.0000
  H   H27       1.0  0.548110225031685  0.3547980152797976  0.9648738437943223  1.0000
  H   H28       1.0  0.9519070230001887  0.3677722918687608  0.5350682032819307  1.0000
  H   H29       1.0  0.14520177987056826  0.9518906800960564  0.5351256296353526  1.0000
  H   H30       1.0  0.3677923283677913  0.14517795659082822  0.5351393983175825  1.0000
  H   H31       1.0  0.6451785279442248  0.8677910894459019  0.03513985583558812  1.0000
  H   H32       1.0  0.8677723118283394  0.45190796414397055  0.03506827427611371  1.0000
  H   H33       1.0  0.45188938765187453  0.6452024363155432  0.03512599892560083  1.0000
  H   H34       1.0  0.048092589487083594  0.6322273444998815  0.4649322834899792  1.0000
  H   H35       1.0  0.854797832931801  0.0481097716180444  0.4648739708275613  1.0000
  H   H36       1.0  0.6322081949163944  0.8548224966557145  0.4648600236051693  1.0000
  H   H37       1.0  0.5406696897777934  0.00876690850306964  0.9075996606269143  1.0000
  H   H38       1.0  0.008791230351377499  0.5429052084682907  0.907575338672821  1.0000
  H   H39       1.0  0.5429859759730178  0.5406899803155769  0.9076005061958767  1.0000
  H   H40       1.0  0.9570946349748294  0.4912082299696793  0.5924241559190975  1.0000
  H   H41       1.0  0.9593095669999128  0.9570149675050674  0.5923995439106803  1.0000
  H   H42       1.0  0.49123355715538963  0.9593304356276208  0.5924003061630785  1.0000
  H   H43       1.0  0.45933128870080947  0.9912321191598823  0.09240019347419806  1.0000
  H   H44       1.0  0.9912088378417038  0.45709463288892493  0.09242404991646687  1.0000
  H   H45       1.0  0.45701409172415447  0.4593102680611595  0.09239977165248088  1.0000
  H   H46       1.0  0.0429054331407812  0.5087907962796053  0.4075756344651539  1.0000
  H   H47       1.0  0.040689134783406196  0.042986704685290505  0.4076009648135043  1.0000
  H   H48       1.0  0.5087665106812621  0.04066940537329346  0.4075998091972508  1.0000
  H   H49       1.0  0.44656026813566285  0.9345073569622716  0.8805598051308221  1.0000
  H   H50       1.0  0.9345049367622519  0.7383450488180476  0.8805823948741959  1.0000
  H   H51       1.0  0.7384305719839901  0.44653198071267036  0.8806007983122156  1.0000
  H   H52       1.0  0.7616552339687883  0.5654952440223582  0.6194171690172539  1.0000
  H   H53       1.0  0.053467948688336306  0.7615695851295429  0.6193985494377471  1.0000
  H   H54       1.0  0.5654930117491473  0.053439666312435526  0.6194402187500074  1.0000
  H   H55       1.0  0.5534397997784665  0.06549329914657426  0.11943990843453632  1.0000
  H   H56       1.0  0.06549513119320949  0.26165479230164124  0.1194174782291171  1.0000
  H   H57       1.0  0.26156904081837945  0.5534684710014305  0.11939880215069824  1.0000
  H   H58       1.0  0.23834483394534794  0.4345054120864945  0.3805825445481048  1.0000
  H   H59       1.0  0.9465312089816107  0.23843106968440253  0.3806008581537412  1.0000
  H   H60       1.0  0.43450705606684176  0.9465605821830682  0.3805598168413411  1.0000
  H   H61       1.0  0.5000238977660415  0.8346069737968026  0.9182669209381019  1.0000
  H   H62       1.0  0.8346035204915055  0.7470638213731108  0.9182673523147428  1.0000
  H   H63       1.0  0.7471048755860821  0.500021734153364  0.918291275894461  1.0000
  H   H64       1.0  0.7529365704975248  0.6653965495158052  0.5817324581097978  1.0000
  H   H65       1.0  0.999977487792762  0.752896127190752  0.5817080906735228  1.0000
  H   H66       1.0  0.6653935613990924  0.9999756372533001  0.5817334660913501  1.0000
  H   H67       1.0  0.4999757150569977  0.16539307042272355  0.0817327592937929  1.0000
  H   H68       1.0  0.16539654736580897  0.25293561213322147  0.08173284281456011  1.0000
  H   H69       1.0  0.25289473721628747  0.49997871756074364  0.08170832456845292  1.0000
  H   H70       1.0  0.24706440780026634  0.3346037005121261  0.41826739894138854  1.0000
  H   H71       1.0  2.0759354043800017e-05  0.24710534107993  0.41829133592017337  1.0000
  H   H72       1.0  0.33460650645822904  2.3796253032097022e-05  0.4182667290379527  1.0000
  H   H73       1.0  0.5969775273369817  0.9075126479812856  0.9432535063110662  1.0000
  H   H74       1.0  0.9075520437367287  0.5521491733225543  0.9432058526332199  1.0000
  H   H75       1.0  0.5522011898540455  0.597064556464055  0.9432227918357156  1.0000
  H   H76       1.0  0.9478508350646492  0.5924480212220615  0.5567945084309684  1.0000
  H   H77       1.0  0.90293491811628  0.9477988123566732  0.5567769740884502  1.0000
  H   H78       1.0  0.59248743324882  0.903022819330573  0.5567468098132339  1.0000
  H   H79       1.0  0.4030229958129111  0.09248576755480543  0.05674679897060032  1.0000
  H   H80       1.0  0.09244847935116238  0.44785046469728945  0.0567942133415187  1.0000
  H   H81       1.0  0.4477979675782747  0.4029360981123631  0.0567771002697981  1.0000
  H   H82       1.0  0.05214968804391161  0.4075512093032005  0.4432056373127437  1.0000
  H   H83       1.0  0.0970637839666608  0.05220163758747281  0.44322328942864425  1.0000
  H   H84       1.0  0.40751263460850135  0.09697661417575895  0.44325338531606917  1.0000
  H   H85       1.0  0.36531293676673465  0.11002053484583746  0.8378416456648238  1.0000
  H   H86       1.0  0.1100461062933107  0.6867723423892967  0.8378424898554683  1.0000
  H   H87       1.0  0.6868081239110139  0.3653215043806951  0.8378654464279691  1.0000
  H   H88       1.0  0.8132270453602785  0.3899544355460949  0.662157368208831  1.0000
  H   H89       1.0  0.13467800591632784  0.8131911464947309  0.6621348824981013  1.0000
  H   H90       1.0  0.3899793279996829  0.1346873349508968  0.6621590663160077  1.0000
  H   H91       1.0  0.6346875860421973  0.8899799179256365  0.1621587452859856  1.0000
  H   H92       1.0  0.8899539616621581  0.3132274987303844  0.16215738324784482  1.0000
  H   H93       1.0  0.31319148855558854  0.6346785394825291  0.16213496057496002  1.0000
  H   H94       1.0  0.18677211183442208  0.6100462187927889  0.337843008410708  1.0000
  H   H95       1.0  0.8653211516968041  0.18680828571670116  0.33786500665733143  1.0000
  H   H96       1.0  0.6100207396974894  0.8653129134258325  0.33784121153235697  1.0000
  H   H97       1.0  0.4009721401844075  0.041965306311084305  0.9371566260316015  1.0000
  H   H98       1.0  0.0419324181395098  0.6199065534516136  0.9372369723901031  1.0000
  H   H99       1.0  0.6198670201724851  0.4010147787995066  0.9372116709519247  1.0000
  H   H100      1.0  0.8800919441389679  0.4580693347511371  0.5627630651112341  1.0000
  H   H101      1.0  0.09898484140100551  0.8801345941267583  0.562788181378636  1.0000
  H   H102      1.0  0.4580342793622662  0.09902820610552251  0.5628433951688051  1.0000
  H   H103      1.0  0.5990292933491473  0.958032703144092  0.06284382273589978  1.0000
  H   H104      1.0  0.9580690154921855  0.38009186361691144  0.06276315435140842  1.0000
  H   H105      1.0  0.38013304764349687  0.5989854696959966  0.06278836463942385  1.0000
  H   H106      1.0  0.11990812369768378  0.5419305062497771  0.43723705024908815  1.0000
  H   H107      1.0  0.9010138608782227  0.11986667104407907  0.4372114380864716  1.0000
  H   H108      1.0  0.5419666990750044  0.9009716365465936  0.4371562993943527  1.0000
  H   H109      1.0  0.5502243419070182  0.9691742377903056  0.8280459383643404  1.0000
  H   H110      1.0  0.9691387021635974  0.652617393921247  0.828102937013341  1.0000
  H   H111      1.0  0.6526583057253957  0.5501699394592806  0.828065150244349  1.0000
  H   H112      1.0  0.8473823522125629  0.5308616756748705  0.6718969311476569  1.0000
  H   H113      1.0  0.94982946940668  0.8473415890299733  0.6719346441661358  1.0000
  H   H114      1.0  0.5308258632483742  0.9497760723539771  0.6719541224227541  1.0000
  H   H115      1.0  0.44977572604844335  0.03082560332937593  0.1719539347389727  1.0000
  H   H116      1.0  0.030861821043103494  0.3473822442173643  0.17189688670438136  1.0000
  H   H117      1.0  0.3473413067412067  0.44983010440394383  0.1719352567585801  1.0000
  H   H118      1.0  0.1526172602333702  0.4691387756829359  0.3281033960862914  1.0000
  H   H119      1.0  0.0501696881651199  0.15265865817062263  0.3280650854513425  1.0000
  H   H120      1.0  0.46917465979818457  0.050224380655038266  0.3280457840140302  1.0000
  H   H121      1.0  0.5506548340777471  0.9727993790895652  0.7678224930813826  1.0000
  H   H122      1.0  0.9727779106141126  0.7087600932589456  0.767882084045219  1.0000
  H   H123      1.0  0.7088459189304146  0.5505752336279741  0.7678516786498762  1.0000
  H   H124      1.0  0.7912402744060287  0.5272218639858292  0.7321180246743567  1.0000
  H   H125      1.0  0.9494239922944061  0.7911535010735452  0.7321482424643903  1.0000
  H   H126      1.0  0.5272007833702331  0.9493454057287991  0.7321775899510145  1.0000
  H   H127      1.0  0.4493456893872434  0.027199851791991095  0.23217692589128794  1.0000
  H   H128      1.0  0.027222157201876495  0.29124015523655084  0.2321179515461296  1.0000
  H   H129      1.0  0.2911541487667647  0.44942501474876206  0.23214859919848155  1.0000
  H   H130      1.0  0.20875933803990418  0.47277858737197687  0.2678823025595917  1.0000
  H   H131      1.0  0.05057516506043669  0.2088463383949347  0.2678520514360869  1.0000
  H   H132      1.0  0.4728001948500803  0.05065402919120032  0.2678226688951426  1.0000
  H   H133      1.0  0.36468467540571925  0.11223239788798631  0.7779691632198008  1.0000
  H   H134      1.0  0.11226097465635827  0.7450436033100374  0.7779698917658706  1.0000
  H   H135      1.0  0.7451032882439534  0.36467670505570726  0.7779906622273813  1.0000
  H   H136      1.0  0.754956882334696  0.38773975241898745  0.7220299593769184  1.0000
  H   H137      1.0  0.13532223380557437  0.7548969191377426  0.7220093507627183  1.0000
  H   H138      1.0  0.38776765234906196  0.13531500444157268  0.7220316280480219  1.0000
  H   H139      1.0  0.6353153921519804  0.8877682578645647  0.2220312771165994  1.0000
  H   H140      1.0  0.8877390931389612  0.2549570526800481  0.22203006405649717  1.0000
  H   H141      1.0  0.25489632432079645  0.635323746420866  0.2220094227495581  1.0000
  H   H142      1.0  0.24504273009057434  0.6122611064334083  0.2779702880880564  1.0000
  H   H143      1.0  0.8646764685149863  0.24510353104393084  0.2779904282403436  1.0000
  H   H144      1.0  0.6122324153894424  0.8646844289459921  0.2779688093382902  1.0000
  C   C1        1.0  0.3555024505636836  0.24064775671502053  0.9362645816823232  1.0000
  C   C2        1.0  0.24067658610817225  0.4676313565984032  0.9362862504432812  1.0000
  C   C3        1.0  0.4676867130719841  0.35547789852336115  0.9362605810185015  1.0000
  C   C4        1.0  0.0323686030347545  0.25932546684722274  0.563713142763973  1.0000
  C   C5        1.0  0.14452244008198525  0.03231356248290503  0.5637400423315384  1.0000
  C   C6        1.0  0.259350420981498  0.1444992352905601  0.563735946302856  1.0000
  C   C7        1.0  0.6444998933948582  0.7593490316700695  0.06373617010896745  1.0000
  C   C8        1.0  0.7593271238520104  0.5323693057589548  0.06371250670444087  1.0000
  C   C9        1.0  0.5323110780900464  0.6445241795103841  0.06374026873388067  1.0000
  C   C10       1.0  0.9676305541444562  0.7406731498999762  0.43628787495746474  1.0000
  C   C11       1.0  0.8554776277546663  0.9676862785180163  0.43626007302878383  1.0000
  C   C12       1.0  0.7406501023853449  0.8554995879776472  0.4362637946958118  1.0000
  C   C13       1.0  0.3793528765637645  0.1889841233522276  0.9184906395272135  1.0000
  C   C14       1.0  0.1889895856395043  0.5132254221867851  0.9185481027009317  1.0000
  C   C15       1.0  0.5132202917455047  0.37937769529708726  0.918495662812127  1.0000
  C   C16       1.0  0.986774363941414  0.31101173239143537  0.5814515161467355  1.0000
  C   C17       1.0  0.1206219383425591  0.9867803033078386  0.5815041473328507  1.0000
  C   C18       1.0  0.3110150952479032  0.12064776099123974  0.5815098871310838  1.0000
  C   C19       1.0  0.6206485569491207  0.8110142935975302  0.08150972947130698  1.0000
  C   C20       1.0  0.8110123033363903  0.48677564460028583  0.08145093175812701  1.0000
  C   C21       1.0  0.48677795502419485  0.6206241801118821  0.08150441078362299  1.0000
  C   C22       1.0  0.013224337945231902  0.6889879023260053  0.41854939142233855  1.0000
  C   C23       1.0  0.8793763088662417  0.01321994247908987  0.4184955185677737  1.0000
  C   C24       1.0  0.6889849726300808  0.8793512650205101  0.41849038776719283  1.0000
  C   C25       1.0  0.40687361987093595  0.19246282944617832  0.8831666474239768  1.0000
  C   C26       1.0  0.19246395729829402  0.517531805540294  0.8832268523905639  1.0000
  C   C27       1.0  0.5175065030072971  0.40696554251805145  0.8831794476094714  1.0000
  C   C28       1.0  0.9824677697245078  0.3075380899249186  0.6167724228067185  1.0000
  C   C29       1.0  0.09303394792567589  0.9824935095844651  0.6168209898707602  1.0000
  C   C30       1.0  0.30753639034136165  0.09312679201821085  0.6168336800853709  1.0000
  C   C31       1.0  0.5931273580342732  0.8075357901283624  0.11683449773116912  1.0000
  C   C32       1.0  0.8075379316982705  0.48246885375218823  0.11677226183746822  1.0000
  C   C33       1.0  0.4824926541667337  0.5930355193154141  0.11682084924109411  1.0000
  C   C34       1.0  0.017530932141468697  0.6924619522871039  0.3832284049933747  1.0000
  C   C35       1.0  0.9069652095686462  0.017505922508199774  0.38317914154168153  1.0000
  C   C36       1.0  0.6924641330822965  0.906873253852517  0.38316557934934536  1.0000
  C   C37       1.0  0.43166463337308875  0.14275249275485888  0.8672865593893774  1.0000
  C   C38       1.0  0.14273181630760226  0.5583268061280933  0.8673577958983641  1.0000
  C   C39       1.0  0.5582803758193292  0.4317886994129055  0.8673279185517585  1.0000
  C   C40       1.0  0.9416729341452308  0.3572698892754931  0.6326417594139073  1.0000
  C   C41       1.0  0.06820979547590159  0.9417201489344722  0.6326721285526489  1.0000
  C   C42       1.0  0.35724660412178366  0.06833558743752383  0.6327138268505692  1.0000
  C   C43       1.0  0.5683354343654158  0.8572469406327057  0.1327138779969347  1.0000
  C   C44       1.0  0.857269617360245  0.44167324103753486  0.13264176951022924  1.0000
  C   C45       1.0  0.44171923674542046  0.568211752063668  0.13267216642518068  1.0000
  C   C46       1.0  0.0583257678395626  0.6427301530552967  0.3673588261291769  1.0000
  C   C47       1.0  0.9317889069841384  0.058279893871386566  0.3673274879623847  1.0000
  C   C48       1.0  0.6427539190642477  0.9316644581956696  0.36728591709817227  1.0000
  C   C49       1.0  0.3768816067728196  0.1344805978604739  0.9375873400470808  1.0000
  C   C50       1.0  0.13448800438572306  0.5510769235698731  0.9376588254503773  1.0000
  C   C51       1.0  0.5510568326275517  0.3769023702900398  0.9376088778310105  1.0000
  C   C52       1.0  0.9489229047163048  0.36551299720818525  0.5623408504847873  1.0000
  C   C53       1.0  0.12309629619119986  0.9489440191790804  0.5623905854839891  1.0000
  C   C54       1.0  0.36551849127012287  0.1231190776805633  0.5624132008638937  1.0000
  C   C55       1.0  0.6231198266005862  0.8655182264651062  0.06241319143947531  1.0000
  C   C56       1.0  0.865513884512694  0.4489233281092597  0.06234061080365186  1.0000
  C   C57       1.0  0.4489418692952399  0.6230988945245103  0.06239146840513857  1.0000
  C   C58       1.0  0.051076252540390485  0.6344864346469451  0.43765976544168683  1.0000
  C   C59       1.0  0.8769014957663613  0.05105642958892538  0.4376091298022189  1.0000
  C   C60       1.0  0.6344811214134366  0.8768813739147776  0.4375866418560291  1.0000
  C   C61       1.0  0.4305388117907895  0.08769310002278984  0.8867835921041304  1.0000
  C   C62       1.0  0.08768033712451738  0.5949931757002389  0.886863157891142  1.0000
  C   C63       1.0  0.5949680701210409  0.4306215328277433  0.8868326033188794  1.0000
  C   C64       1.0  0.9050069214532072  0.41232044150774533  0.6131365123908096  1.0000
  C   C65       1.0  0.069378215928289  0.9050320270008144  0.6131672806469339  1.0000
  C   C66       1.0  0.41230710002066223  0.06946154721339325  0.6132170335606445  1.0000
  C   C67       1.0  0.569461711276439  0.912306945491636  0.11321639410162739  1.0000
  C   C68       1.0  0.9123206411526114  0.4050074818222811  0.11313661939107077  1.0000
  C   C69       1.0  0.4050310871717996  0.5693795291244899  0.11316745127466993  1.0000
  C   C70       1.0  0.09499178065039621  0.5876796009418186  0.3868638308952583  1.0000
  C   C71       1.0  0.9306204864129414  0.09496801568627676  0.38683257812511573  1.0000
  C   C72       1.0  0.5876929676558476  0.9305391086579319  0.3867831645187394  1.0000
  C   C73       1.0  0.532183232743037  0.9703476552621737  0.9099252411390495  1.0000
  C   C74       1.0  0.9703622006069919  0.5874905079368916  0.9099081733269968  1.0000
  C   C75       1.0  0.5875639985753195  0.5322048576153409  0.9099294104923389  1.0000
  C   C76       1.0  0.9125094893618309  0.529636845785042  0.5900914194559448  1.0000
  C   C77       1.0  0.9677943885647051  0.912436209972583  0.5900705982790057  1.0000
  C   C78       1.0  0.5296520984582499  0.9678170998688105  0.590075388751707  1.0000
  C   C79       1.0  0.46781820112628475  0.029650762043885944  0.09007440108843673  1.0000
  C   C80       1.0  0.029637412138569595  0.4125087211746959  0.0900919086998542  1.0000
  C   C81       1.0  0.4124351587381908  0.46779579684231015  0.09007072387019119  1.0000
  C   C82       1.0  0.08749057889325229  0.4703617730884206  0.409908208440271  1.0000
  C   C83       1.0  0.03220294778517999  0.08756444142020567  0.4099298931638344  1.0000
  C   C84       1.0  0.470348424293867  0.032182130300149894  0.40992548376303983  1.0000
  C   C85       1.0  0.48980969107616795  0.9779400923604202  0.8921672255090201  1.0000
  C   C86       1.0  0.9779517777685455  0.6400503865380571  0.8921787768571008  1.0000
  C   C87       1.0  0.6401332626200399  0.48980587778785895  0.892189173173648  1.0000
  C   C88       1.0  0.8599493864486476  0.5220483811543774  0.6078204014858811  1.0000
  C   C89       1.0  0.010194078072274198  0.8598669625179767  0.6078106457025713  1.0000
  C   C90       1.0  0.5220592070097253  0.010191012014310339  0.6078326150342903  1.0000
  C   C91       1.0  0.5101912875005822  0.02205934291588121  0.10783230656610239  1.0000
  C   C92       1.0  0.022048745696444896  0.35994884434349916  0.10782064211556994  1.0000
  C   C93       1.0  0.35986634992404726  0.5101949811832965  0.10781083203431051  1.0000
  C   C94       1.0  0.14005068176510346  0.47795105270825633  0.3921790668723872  1.0000
  C   C95       1.0  0.9898037135081876  0.1401338933883168  0.3921897165857048  1.0000
  C   C96       1.0  0.4779413162744532  0.9898094412322325  0.39216680688846856  1.0000
  C   C97       1.0  0.47917415773967775  0.9284776985003449  0.8945938478637174  1.0000
  C   C98       1.0  0.9284722033432047  0.6977169042227231  0.89460136118808  1.0000
  C   C99       1.0  0.6977939183134011  0.4791672847021573  0.8946226139115366  1.0000
  C   C100      1.0  0.8022825709216048  0.5715282727518413  0.6053978173077398  1.0000
  C   C101      1.0  0.020831677350159297  0.8022068484093056  0.6053770487739669  1.0000
  C   C102      1.0  0.5715219334862169  0.020827673604458048  0.6054052208452632  1.0000
  C   C103      1.0  0.520826820976552  0.07152132940013452  0.10540552172336248  1.0000
  C   C104      1.0  0.0715278648498767  0.3022829371344854  0.1053980274012076  1.0000
  C   C105      1.0  0.30220569460778524  0.5208331671307177  0.10537674429436096  1.0000
  C   C106      1.0  0.19771749725082088  0.4284719760999565  0.39460149151257445  1.0000
  C   C107      1.0  0.9791665694815419  0.19779380451591094  0.39462326412871823  1.0000
  C   C108      1.0  0.4284781346862019  0.9791725752473396  0.3945940879750438  1.0000
  C   C109      1.0  0.5092156200537019  0.8728064687024212  0.9153454849726685  1.0000
  C   C110      1.0  0.8728034359540542  0.7025816111685121  0.9153510425626548  1.0000
  C   C111      1.0  0.7026362866377838  0.5092195531568747  0.9153693240969076  1.0000
  C   C112      1.0  0.797418977183618  0.627196679021118  0.584648233135617  1.0000
  C   C113      1.0  0.9907800078981451  0.7973644690324306  0.5846300264321515  1.0000
  C   C114      1.0  0.6271928706262243  0.9907847401525844  0.5846542490572376  1.0000
  C   C115      1.0  0.4907844482995287  0.12719255778439728  0.08465382089755737  1.0000
  C   C116      1.0  0.12719663212021706  0.2974182300699369  0.08464858828364186  1.0000
  C   C117      1.0  0.2973642367652118  0.49078090020843496  0.08462985556883501  1.0000
  C   C118      1.0  0.2025820012123205  0.3728039786201692  0.4153513018895866  1.0000
  C   C119      1.0  0.0092196050230342  0.2026359828004445  0.41536933177374635  1.0000
  C   C120      1.0  0.37280719734990697  0.009214693472515002  0.4153457038150492  1.0000
  C   C121      1.0  0.5631733123290487  0.914238459122984  0.9299079254173179  1.0000
  C   C122      1.0  0.9142668061494273  0.5925932813377986  0.9298773077655652  1.0000
  C   C123      1.0  0.5926469498431003  0.5632280400851072  0.9298988230040593  1.0000
  C   C124      1.0  0.907406926778293  0.5857331341422739  0.5701220710014853  1.0000
  C   C125      1.0  0.9367714032665687  0.907353262122399  0.5701011474521351  1.0000
  C   C126      1.0  0.5857617679200756  0.9368268699747732  0.5700921536172672  1.0000
  C   C127      1.0  0.43682766640784365  0.08576016128291293  0.07009152393874271  1.0000
  C   C128      1.0  0.08573280681308398  0.4074063555059055  0.07012220997828682  1.0000
  C   C129      1.0  0.4073522075892199  0.43677261449131083  0.07010106910145451  1.0000
  C   C130      1.0  0.09259359640774528  0.41426691149091965  0.42987767294725643  1.0000
  C   C131      1.0  0.06322684330684329  0.09264779805986482  0.4298995701955945  1.0000
  C   C132      1.0  0.4142387549508583  0.06317236031294729  0.4299084766404704  1.0000
  C   C133      1.0  0.5514607579004717  0.8651220987267012  0.933208882836773  1.0000
  C   C134      1.0  0.8651359445229759  0.6501362490361874  0.9332001919234755  1.0000
  C   C135      1.0  0.6501798812863057  0.5514886846087849  0.9332100138019827  1.0000
  C   C136      1.0  0.8498644177764731  0.634863659371895  0.5667991668211486  1.0000
  C   C137      1.0  0.9485109913657794  0.8498216376973036  0.5667901371226732  1.0000
  C   C138      1.0  0.6348788153049227  0.9485395008716825  0.5667908031550865  1.0000
  C   C139      1.0  0.4485402208725659  0.1348781517762988  0.0667900051863697  1.0000
  C   C140      1.0  0.1348641236701127  0.3498635923210288  0.06679919666581209  1.0000
  C   C141      1.0  0.34982018672597087  0.4485123791134171  0.06678937773738619  1.0000
  C   C142      1.0  0.15013656077961457  0.3651361833989882  0.43320028548499323  1.0000
  C   C143      1.0  0.05148679959995659  0.15017962510974311  0.4332113566816815  1.0000
  C   C144      1.0  0.36512125245425125  0.051459525021300655  0.4332097140002063  1.0000
  C   C145      1.0  0.457664958259123  0.03902036157258944  0.8372435147277953  1.0000
  C   C146      1.0  0.039055046570254597  0.666021099450852  0.8372795835114814  1.0000
  C   C147      1.0  0.6661020558381024  0.45764871910520794  0.8372736797299111  1.0000
  C   C148      1.0  0.8339778980656616  0.4609462969703202  0.6627201958479105  1.0000
  C   C149      1.0  0.042350665089621486  0.8338970837117827  0.6627262192316792  1.0000
  C   C150      1.0  0.4609792281844917  0.042335630982350464  0.6627569403415591  1.0000
  C   C151      1.0  0.5423355648080984  0.9609796839418369  0.16275647147796243  1.0000
  C   C152      1.0  0.9609450212250646  0.3339795565392338  0.1627203723108863  1.0000
  C   C153      1.0  0.3338971015942248  0.54235193547121  0.1627262123756026  1.0000
  C   C154      1.0  0.1660212591083692  0.5390547648631454  0.3372801010026478  1.0000
  C   C155      1.0  0.9576475818815595  0.16610316183761142  0.33727393118297033  1.0000
  C   C156      1.0  0.539022205183734  0.9576656384294965  0.3372428702741246  1.0000
  C   C157      1.0  0.4059858761164675  0.08000450961073119  0.8223735093251818  1.0000
  C   C158      1.0  0.0800331809412498  0.6915807920819718  0.8223844488806832  1.0000
  C   C159      1.0  0.6916516780203991  0.40597617722049517  0.8223987160512037  1.0000
  C   C160      1.0  0.808418190683497  0.41996789784493427  0.6776153846294691  1.0000
  C   C161      1.0  0.09402292805005887  0.8083473394612714  0.6776012585731336  1.0000
  C   C162      1.0  0.41999523507571723  0.09401362698120147  0.6776271314477639  1.0000
  C   C163      1.0  0.5940151020831834  0.9199953328038506  0.1776266697520015  1.0000
  C   C164      1.0  0.9199668868540697  0.3084198639081137  0.17761550694169162  1.0000
  C   C165      1.0  0.30834793456501325  0.5940238667614964  0.17760144869470912  1.0000
  C   C166      1.0  0.19158051137878118  0.5800329595937939  0.3223847991186517  1.0000
  C   C167      1.0  0.9059757743118337  0.19165229573123105  0.3223986799678897  1.0000
  C   C168      1.0  0.5800061984939829  0.9059860125710772  0.3223727559868124  1.0000
  C   C169      1.0  0.4023871455938631  0.08435600327521096  0.9221050370463997  1.0000
  C   C170      1.0  0.08433608229859858  0.5911665748897762  0.9221827257813756  1.0000
  C   C171      1.0  0.591118476697268  0.40245599431765555  0.9221510035932851  1.0000
  C   C172      1.0  0.9088328456454134  0.4156649718940671  0.5778170229958164  1.0000
  C   C173      1.0  0.09754255079229777  0.9088825363586469  0.5778489358029546  1.0000
  C   C174      1.0  0.4156436898932938  0.09761303087980619  0.5778952400703545  1.0000
  C   C175      1.0  0.5976129222634512  0.9156434302311213  0.07789515808290307  1.0000
  C   C176      1.0  0.9156653513899117  0.4088330647812695  0.07781691939619154  1.0000
  C   C177      1.0  0.40888068047676995  0.59754506751581  0.07784929325728032  1.0000
  C   C178      1.0  0.09116631173009178  0.5843344600798303  0.42218335067364177  1.0000
  C   C179      1.0  0.902455241025791  0.0911183197851814  0.4221509419712888  1.0000
  C   C180      1.0  0.5843563780208426  0.9023876252290391  0.42210447349500413  1.0000
  C   C181      1.0  0.5094678913460484  0.0003595889304862168  0.8170060885549688  1.0000
  C   C182      1.0  0.0003621385532994999  0.6731725879334295  0.8170552717876162  1.0000
  C   C183      1.0  0.6732532612619763  0.5094117406530855  0.8170328905808405  1.0000
  C   C184      1.0  0.8268270837304214  0.49963842100402917  0.6829447729687247  1.0000
  C   C185      1.0  0.9905881713344654  0.826744917817436  0.6829668967400407  1.0000
  C   C186      1.0  0.4996402854946637  0.9905329422199788  0.6829938561823639  1.0000
  C   C187      1.0  0.490532176630076  0.9996398446946132  0.182993864317325  1.0000
  C   C188      1.0  0.9996374739133029  0.32682745592979545  0.1829451352153128  1.0000
  C   C189      1.0  0.3267458959533868  0.490588506191216  0.18296756580767243  1.0000
  C   C190      1.0  0.17317252869485597  0.5003624378483665  0.3170554744962502  1.0000
  C   C191      1.0  0.009410986376806799  0.17325492200734527  0.317032670389402  1.0000
  C   C192      1.0  0.5003611480130344  0.009467919816053402  0.3170057919452844  1.0000
  C   C193      1.0  0.5091337397651045  0.0022332385265500404  0.7831122924101521  1.0000
  C   C194      1.0  0.0022284901840663  0.705539225167101  0.7831570572786645  1.0000
  C   C195      1.0  0.7056267263750086  0.5090614618960598  0.7831312971947639  1.0000
  C   C196      1.0  0.794461228795427  0.49777134027389275  0.7168429781837844  1.0000
  C   C197      1.0  0.9909381740364154  0.794372628650628  0.7168687971779093  1.0000
  C   C198      1.0  0.49776686166629946  0.9908668464775519  0.7168878988386282  1.0000
  C   C199      1.0  0.4908654177498804  0.9977657860715329  0.21688791877127042  1.0000
  C   C200      1.0  0.9977706671294441  0.2944614292905499  0.21684307708386535  1.0000
  C   C201      1.0  0.2943728861897411  0.4909389895805205  0.21686878778217533  1.0000
  C   C202      1.0  0.20553883902056214  0.5022289082216106  0.2831570574075641  1.0000
  C   C203      1.0  0.0090605276694191  0.2056282284317987  0.2831321133412459  1.0000
  C   C204      1.0  0.5022345717019262  0.009134422934295158  0.2831119117770555  1.0000
  C   C205      1.0  0.45746133956066604  0.04229672129244485  0.7678873806586849  1.0000
  C   C206      1.0  0.0423299125285226  0.732323329835431  0.7679000539788987  1.0000
  C   C207      1.0  0.7324073733987077  0.45741508867534014  0.7678988026296736  1.0000
  C   C208      1.0  0.7676767347823699  0.45767010939195524  0.7320997775220732  1.0000
  C   C209      1.0  0.042584006754864796  0.7675920705975655  0.7321013330276287  1.0000
  C   C210      1.0  0.4577028086518097  0.042538715474428605  0.7321131908264816  1.0000
  C   C211      1.0  0.5425382729472616  0.9577025075816153  0.23211318588219856  1.0000
  C   C212      1.0  0.9576696996591278  0.26767752877942996  0.23210067800010148  1.0000
  C   C213      1.0  0.2675917836771831  0.5425855655447763  0.23210181624688178  1.0000
  C   C214      1.0  0.23232287804066937  0.5423299348275635  0.2678999027098143  1.0000
  C   C215      1.0  0.957414240174984  0.23240898994099965  0.2678986578490595  1.0000
  C   C216      1.0  0.5422977142966018  0.9574613299212302  0.2678870376362853  1.0000
  C   C217      1.0  0.40616848920642207  0.08134830647931321  0.7884021036632162  1.0000
  C   C218      1.0  0.0813769929251151  0.7240207943547291  0.7884097059558924  1.0000
  C   C219      1.0  0.7241056719746836  0.40614780857054467  0.7884247220046134  1.0000
  C   C220      1.0  0.7759793901559604  0.41862302205322516  0.711589859483027  1.0000
  C   C221      1.0  0.09385170655077248  0.7758941228556325  0.7115750190219073  1.0000
  C   C222      1.0  0.4186521539288179  0.09383107031475645  0.7115983859936534  1.0000
  C   C223      1.0  0.5938315783512778  0.9186523492732376  0.21159833667317682  1.0000
  C   C224      1.0  0.918622164347063  0.2759806750920929  0.21159026886868304  1.0000
  C   C225      1.0  0.27589394047125637  0.5938526427872687  0.21157560522933497  1.0000
  C   C226      1.0  0.22401976727635997  0.5813776325231858  0.28841003262248693  1.0000
  C   C227      1.0  0.9061474510210273  0.2241061243449637  0.2884247105955708  1.0000
  C   C228      1.0  0.5813483691384036  0.9061689751996699  0.2884016002121043  1.0000
  C   C229      1.0  0.5834651132525294  0.8059149542545828  0.9557779177139664  1.0000
  C   C230      1.0  0.8058989433798445  0.6548165601510048  0.9557441764881389  1.0000
  C   C231      1.0  0.654837631996031  0.5834529770102749  0.9557764123226918  1.0000
  C   C232      1.0  0.845183259274769  0.6941005068111038  0.5442556227937203  1.0000
  C   C233      1.0  0.9165483255706375  0.8451640576974313  0.5442221767018013  1.0000
  C   C234      1.0  0.6940861534847753  0.9165355917871951  0.5442216396419467  1.0000
  C   C235      1.0  0.4165367763639407  0.19408285305087966  0.044220785868851926  1.0000
  C   C236      1.0  0.19410112473576652  0.3451824660982793  0.044255613896112295  1.0000
  C   C237      1.0  0.3451628914224472  0.4165495139467198  0.044222126241152224  1.0000
  C   C238      1.0  0.15481771882673456  0.30589892799012836  0.4557448783094529  1.0000
  C   C239      1.0  0.0834490105416279  0.15483659345781578  0.4557787992550645  1.0000
  C   C240      1.0  0.30591573527934907  0.08346262218149297  0.45577867997098315  1.0000
  N   N1        1.0  0.4580831529103193  0.03552660045492926  0.8719653109928345  1.0000
  N   N2        1.0  0.0355399051121239  0.6344107300270209  0.8720130303576639  1.0000
  N   N3        1.0  0.6344646805443971  0.4580861410567322  0.8720040275172565  1.0000
  N   N4        1.0  0.8655882935831938  0.46446156035456443  0.6279864767818708  1.0000
  N   N5        1.0  0.04191332348906229  0.8655352011703601  0.6279957116033614  1.0000
  N   N6        1.0  0.46447357275191337  0.04191669418132451  0.6280349327901149  1.0000
  N   N7        1.0  0.5419169148850003  0.964474055535156  0.1280346448295334  1.0000
  N   N8        1.0  0.9644606180532448  0.3655897231007544  0.12798663382210407  1.0000
  N   N9        1.0  0.3655344767897829  0.5419141059063292  0.1279961866142472  1.0000
  N   N10       1.0  0.13441086386979606  0.5355386867272643  0.37201349509261666  1.0000
  N   N11       1.0  0.958085378733351  0.13446484139796405  0.37200438942569747  1.0000
  N   N12       1.0  0.5355264950020739  0.9580847767979319  0.3719648634942985  1.0000
  O   O1        1.0  0.33710672980160433  0.33707448024482284  0.9887477454211221  1.0000
  O   O2        1.0  0.16292536612724007  0.1628931866165502  0.5112525642977985  1.0000
  O   O3        1.0  0.662893793663386  0.6629247506367335  0.01125167355154841  1.0000
  O   O4        1.0  0.8370751568625039  0.8371060437899445  0.48874782370292996  1.0000
  O   O5        1.0  0.36903209122655767  0.28457757490838276  0.9197915714644863  1.0000
  O   O6        1.0  0.2846117532150386  0.42665311544331536  0.919805541169076  1.0000
  O   O7        1.0  0.42669409897001737  0.36899731459133983  0.9198006793174685  1.0000
  O   O8        1.0  0.07334882795817779  0.21539007393955964  0.5801932625597459  1.0000
  O   O9        1.0  0.13100173918208208  0.0733058589413318  0.5802000175330733  1.0000
  O   O10       1.0  0.21542143499910074  0.13096849088752546  0.5802092530039786  1.0000
  O   O11       1.0  0.630969797082983  0.715420231090647  0.08020979694547489  1.0000
  O   O12       1.0  0.7153896805302863  0.5733477468302441  0.08019362244454696  1.0000
  O   O13       1.0  0.5733041474432453  0.631004560461335  0.08020012104932309  1.0000
  O   O14       1.0  0.9266521501226633  0.7846097683562547  0.4198071587744465  1.0000
  O   O15       1.0  0.8689978733051832  0.9266937774273103  0.4198004692388296  1.0000
  O   O16       1.0  0.784579543779124  0.8690293145292074  0.4197903558900363  1.0000
  O   O17       1.0  0.3237793723143767  0.23678998705528184  0.9669683788368246  1.0000
  O   O18       1.0  0.23682987379344667  0.47247483366655985  0.9669925775314212  1.0000
  O   O19       1.0  0.4725715006055679  0.3237330922644546  0.9669664265329061  1.0000
  O   O20       1.0  0.027524325194193  0.26317103962927757  0.5330069536277477  1.0000
  O   O21       1.0  0.17626819632433666  0.027427983520915727  0.5330346488527482  1.0000
  O   O22       1.0  0.2632072431105214  0.17622287331786177  0.5330322260805147  1.0000
  O   O23       1.0  0.6762220613999828  0.7632068000349007  0.03303206698059572  1.0000
  O   O24       1.0  0.7631738360840785  0.5275274586691266  0.03300586054039206  1.0000
  O   O25       1.0  0.5274272008367972  0.6762706171612933  0.03303416786042134  1.0000
  O   O26       1.0  0.9724739215858731  0.7368259456071515  0.4669945617097541  1.0000
  O   O27       1.0  0.8237327818184994  0.9725706362911526  0.46696601178837943  1.0000
  O   O28       1.0  0.7367923698726598  0.8237763560312603  0.4669673714323182  1.0000
  O   O29       1.0  0.5624878121066316  0.7670024518489315  0.963690072045381  1.0000
  O   O30       1.0  0.7670518011834274  0.7067769670512264  0.9637175813078329  1.0000
  O   O31       1.0  0.7068039596585647  0.562358944145089  0.9637356231611207  1.0000
  O   O32       1.0  0.7932229825027193  0.7329471918653071  0.5362820431178718  1.0000
  O   O33       1.0  0.9376418593652004  0.7931982843711084  0.5362627101493587  1.0000
  O   O34       1.0  0.7329990357390909  0.9375122506629269  0.5363109892873866  1.0000
  O   O35       1.0  0.4375136224135616  0.23299718865347774  0.03630787733309406  1.0000
  O   O36       1.0  0.23294690133861448  0.29322185327087885  0.03628227451412868  1.0000
  O   O37       1.0  0.2931979298493914  0.43764334571955754  0.036261960705935785  1.0000
  O   O38       1.0  0.20677799553678258  0.2670534654196786  0.46371821867837326  1.0000
  O   O39       1.0  0.06235593192082688  0.20680134869513014  0.46373861821688683  1.0000
  O   O40       1.0  0.26700103164297667  0.062487182368343594  0.46369017486996705  1.0000
  O   O41       1.0  0.6291253579478989  0.7989578983100217  0.965556794586682  1.0000
  O   O42       1.0  0.7988475570716317  0.6063863439263671  0.9654409635192708  1.0000
  O   O43       1.0  0.6063854221338046  0.6292086410135554  0.965505879400176  1.0000
  O   O44       1.0  0.8936135934038487  0.7011528679035097  0.5345586203324117  1.0000
  O   O45       1.0  0.8707941153972669  0.8936176426325206  0.5344911904446832  1.0000
  O   O46       1.0  0.7010439595553348  0.8708752438543712  0.534443118618988  1.0000
  O   O47       1.0  0.37087471028652164  0.20104112805802288  0.03444275354056004  1.0000
  O   O48       1.0  0.20115342168593028  0.39361186898494094  0.03455856560577081  1.0000
  O   O49       1.0  0.3936164672553488  0.37079364873233095  0.03449194672389671  1.0000
  O   O50       1.0  0.10638783978875209  0.2988471787870567  0.46544191410422536  1.0000
  O   O51       1.0  0.12920413119680768  0.10638301005516844  0.4655096069720273  1.0000
  O   O52       1.0  0.298957018189732  0.1291241905905665  0.4655581092552196  1.0000
