data_image0
_chemical_formula_structural       Zn24H144C184S8N24O80
_chemical_formula_sum              "Zn24 H144 C184 S8 N24 O80"
_cell_length_a       10.225955542121378
_cell_length_b       23.151399936088726
_cell_length_c       27.427210254248116
_cell_angle_alpha    90.00013255627368
_cell_angle_beta     89.99952737932178
_cell_angle_gamma    89.99971013604576

_space_group_name_H-M_alt    "P 1"
_space_group_IT_number       1

loop_
  _space_group_symop_operation_xyz
  'x, y, z'

loop_
  _atom_site_type_symbol
  _atom_site_label
  _atom_site_symmetry_multiplicity
  _atom_site_fract_x
  _atom_site_fract_y
  _atom_site_fract_z
  _atom_site_occupancy
  Zn  Zn1       1.0  0.5896305311810437  0.8022683376188482  0.9591623119350885  1.0000
  Zn  Zn2       1.0  0.4419638700032422  0.7288716825570485  0.041489845280779  1.0000
  Zn  Zn3       1.0  0.7559352339486338  0.7714804200554963  0.0442414118951078  1.0000
  Zn  Zn4       1.0  0.089626320882715  0.6977335716803735  0.0408384535205997  1.0000
  Zn  Zn5       1.0  0.9419655156289085  0.7711298671532916  0.9585116512777887  1.0000
  Zn  Zn6       1.0  0.25593796739033087  0.7285185239930384  0.95575883816214  1.0000
  Zn  Zn7       1.0  0.4103750424275178  0.19773464796186596  0.4591599995427843  1.0000
  Zn  Zn8       1.0  0.558035227033642  0.27112886085813404  0.54148830295145  1.0000
  Zn  Zn9       1.0  0.24406184689618027  0.22851537958165125  0.5442400302762778  1.0000
  Zn  Zn10      1.0  0.9103708346425423  0.30226567413278366  0.5408380676186226  1.0000
  Zn  Zn11      1.0  0.058035182748518814  0.22886836531761645  0.4585115853182415  1.0000
  Zn  Zn12      1.0  0.744064747200099  0.2714835883752542  0.4557596460881896  1.0000
  Zn  Zn13      1.0  0.4103727891650024  0.19773493777450576  0.04083856277824081  1.0000
  Zn  Zn14      1.0  0.558043361980758  0.2711268414998642  0.9585113940232903  1.0000
  Zn  Zn15      1.0  0.24406808642480377  0.22852155951738234  0.9557576398098322  1.0000
  Zn  Zn16      1.0  0.9103760215879151  0.3022675440154643  0.9591609627864344  1.0000
  Zn  Zn17      1.0  0.0580407384544515  0.22886952078236078  0.041488858825779615  1.0000
  Zn  Zn18      1.0  0.744069264586287  0.2714812958818413  0.0442424011431939  1.0000
  Zn  Zn19      1.0  0.5896263221452287  0.8022647399782769  0.5408397813655057  1.0000
  Zn  Zn20      1.0  0.44196613754373  0.7288718228984763  0.45851038415381856  1.0000
  Zn  Zn21      1.0  0.7559346281687098  0.7714814167285552  0.45576011523848353  1.0000
  Zn  Zn22      1.0  0.08962857412338111  0.6977350096265268  0.4591609840911063  1.0000
  Zn  Zn23      1.0  0.941961292300981  0.7711297268115588  0.5414892894006443  1.0000
  Zn  Zn24      1.0  0.25593074991770237  0.7285201189657043  0.5442408640362616  1.0000
  H   H1        1.0  0.49816690943424663  0.7003579585933007  0.949059977945865  1.0000
  H   H2        1.0  0.9445344851213096  0.04741649115423739  0.0853889660904912  1.0000
  H   H3        1.0  0.6937617788163236  0.9840360367749169  0.9404830675083319  1.0000
  H   H4        1.0  0.4400330475536549  0.8177787333328653  0.12456655773846852  1.0000
  H   H5        1.0  0.7832173886196119  0.8582838876160533  0.12301760320287511  1.0000
  H   H6        1.0  0.8928844582999886  0.9433122482281675  0.0737376226935496  1.0000
  H   H7        1.0  0.5685492195860675  0.900049809470417  0.8777341802251969  1.0000
  H   H8        1.0  0.4132062702848103  0.6393714074853918  0.12299791000448582  1.0000
  H   H9        1.0  0.4083949983290225  0.6341874012895516  0.21346318309843335  1.0000
  H   H10       1.0  0.6084057237075626  0.7193089486002509  0.785879540097234  1.0000
  H   H11       1.0  0.4390502275507372  0.8210171068267513  0.2144076354695343  1.0000
  H   H12       1.0  0.7416496586251711  0.6810976739214849  0.1237302906303555  1.0000
  H   H13       1.0  0.5666990064199382  0.9056769931977939  0.7874905955531659  1.0000
  H   H14       1.0  0.6067031735537115  0.7218929344214259  0.8754234681423656  1.0000
  H   H15       1.0  0.7964239365453026  0.8627753021409391  0.21358385240757372  1.0000
  H   H16       1.0  0.7506356249905438  0.6766228967541751  0.21431148629059044  1.0000
  H   H17       1.0  0.2352428192640303  0.7852358194651997  0.4601051614763421  1.0000
  H   H18       1.0  0.519924121292874  0.8308646936528629  0.45123182451941807  1.0000
  H   H19       1.0  0.9981627301917229  0.7996417371034992  0.050940250640216816  1.0000
  H   H20       1.0  0.4445443703630616  0.45258029868111993  0.9146170164155834  1.0000
  H   H21       1.0  0.19374847230400863  0.5159647747213753  0.05951628144927672  1.0000
  H   H22       1.0  0.9400345963014091  0.682220229077778  0.8754338509971404  1.0000
  H   H23       1.0  0.2832071940131797  0.6417210423050932  0.8769807393246297  1.0000
  H   H24       1.0  0.3929005538610681  0.5566850923311294  0.9262643905389681  1.0000
  H   H25       1.0  0.0685502029356684  0.5999564665757974  0.1222666505585153  1.0000
  H   H26       1.0  0.9131989067321201  0.8606280471429955  0.8770036756869288  1.0000
  H   H27       1.0  0.9083768491123224  0.8658120641590799  0.7865380529185941  1.0000
  H   H28       1.0  0.10841729983695812  0.7806920546312456  0.21412663616946054  1.0000
  H   H29       1.0  0.9390616088617493  0.6789796980851648  0.7855935054973885  1.0000
  H   H30       1.0  0.24165310748767152  0.8189051896754903  0.8762718267082903  1.0000
  H   H31       1.0  0.06669611682048071  0.5943245356772662  0.21251060556722484  1.0000
  H   H32       1.0  0.1067098996727296  0.7781141197908421  0.12458271341401433  1.0000
  H   H33       1.0  0.29641186983781154  0.6372317578101344  0.7864144491973023  1.0000
  H   H34       1.0  0.2506439452195083  0.8233881534977955  0.7856909678020543  1.0000
  H   H35       1.0  0.7352425628038688  0.714763171070629  0.5398936943064784  1.0000
  H   H36       1.0  0.0199237538905024  0.6691343486621761  0.5487680631461346  1.0000
  H   H37       1.0  0.5018320406524808  0.29964197569332646  0.44905831005794283  1.0000
  H   H38       1.0  0.0554744050755289  0.9525820130400856  0.5853873933789943  1.0000
  H   H39       1.0  0.30624322707326007  0.0159664655889742  0.44047306671353686  1.0000
  H   H40       1.0  0.559968137137986  0.1822246297329002  0.6245666590473391  1.0000
  H   H41       1.0  0.21679849869258314  0.14171515178452407  0.6230146784184357  1.0000
  H   H42       1.0  0.10712859934870522  0.05668449622245218  0.573733778148906  1.0000
  H   H43       1.0  0.4314424953656656  0.09994474578589055  0.3777297888157136  1.0000
  H   H44       1.0  0.5867949488730205  0.3606302235155567  0.6229964530936627  1.0000
  H   H45       1.0  0.5916013009902983  0.3658127502527222  0.7134613567917896  1.0000
  H   H46       1.0  0.39158702991564814  0.280690969763846  0.2858785414968921  1.0000
  H   H47       1.0  0.5609528963482262  0.17898131954537178  0.7144077274093732  1.0000
  H   H48       1.0  0.25833980963383857  0.31889704807539937  0.6237301348176345  1.0000
  H   H49       1.0  0.4332907782017161  0.09432249764238068  0.2874825414293127  1.0000
  H   H50       1.0  0.39329348160044464  0.27810550194433137  0.3754213654147379  1.0000
  H   H51       1.0  0.20358996242870836  0.1372218261350397  0.713580230590033  1.0000
  H   H52       1.0  0.2493440313433979  0.3233763932567655  0.7143099086663014  1.0000
  H   H53       1.0  0.7647597998813964  0.2147650090180235  0.9601087022078119  1.0000
  H   H54       1.0  0.48007673690174363  0.169136542411735  0.9512310540880337  1.0000
  H   H55       1.0  0.0018322477442965003  0.2003545128646208  0.5509413877850946  1.0000
  H   H56       1.0  0.5554748940235755  0.5474169494105466  0.4146131133162854  1.0000
  H   H57       1.0  0.8062443614868542  0.48403193073284007  0.5595220417334588  1.0000
  H   H58       1.0  0.05996890393033991  0.3177747517992273  0.3754354108416038  1.0000
  H   H59       1.0  0.7168011617174487  0.3582830135386816  0.37698289482724323  1.0000
  H   H60       1.0  0.6071243221829974  0.4433139154842464  0.4262641349790855  1.0000
  H   H61       1.0  0.931434407865595  0.4000533692840306  0.6222652962492747  1.0000
  H   H62       1.0  0.08677424404540092  0.1393673700124154  0.3770026168780448  1.0000
  H   H63       1.0  0.0915885087559261  0.1341861282862524  0.2865373336724133  1.0000
  H   H64       1.0  0.891595609304481  0.21931241810035831  0.714120313075334  1.0000
  H   H65       1.0  0.06095364280800912  0.3210171958978592  0.2855957978326487  1.0000
  H   H66       1.0  0.7583405952615223  0.18109584066463918  0.3762746017161974  1.0000
  H   H67       1.0  0.9332855348190208  0.4056777729667544  0.7125110794997624  1.0000
  H   H68       1.0  0.8932932404920211  0.2218931307656575  0.6245789422838613  1.0000
  H   H69       1.0  0.7035896731171862  0.36277075365354244  0.2864173835885424  1.0000
  H   H70       1.0  0.7493419671643765  0.17661521987520953  0.2856930327418326  1.0000
  H   H71       1.0  0.26475461348594825  0.2852339124515879  0.03989236843108301  1.0000
  H   H72       1.0  0.9800751833356499  0.3308627592194924  0.0487700784728275  1.0000
  H   H73       1.0  0.5018422783689118  0.2996427251550244  0.0509390737487152  1.0000
  H   H74       1.0  0.05547763639548012  0.9525837606514714  0.9146100855991222  1.0000
  H   H75       1.0  0.3062346961965687  0.015966374748984404  0.0595189010190467  1.0000
  H   H76       1.0  0.5599692949286564  0.1822189268493943  0.8754335877680505  1.0000
  H   H77       1.0  0.21678397592360452  0.14172068359596324  0.8769821777104668  1.0000
  H   H78       1.0  0.10713353065607123  0.056687139690801296  0.9262603351818444  1.0000
  H   H79       1.0  0.43145116707714953  0.0999569214348099  0.12226231927892431  1.0000
  H   H80       1.0  0.5867950942503698  0.36062754852043344  0.8770055169176558  1.0000
  H   H81       1.0  0.5916073441006661  0.36581457828943803  0.786539514622284  1.0000
  H   H82       1.0  0.39159857453111613  0.2806934629153588  0.2141227930194489  1.0000
  H   H83       1.0  0.5609511370195506  0.17898271305271865  0.7855921454391821  1.0000
  H   H84       1.0  0.25833703740651975  0.31890473760638827  0.8762665734921953  1.0000
  H   H85       1.0  0.4333062697797488  0.094328009943645  0.2125051747388369  1.0000
  H   H86       1.0  0.3932991688504545  0.278114228428933  0.12457886498198431  1.0000
  H   H87       1.0  0.20357840592808435  0.13722322192046477  0.7864166577012173  1.0000
  H   H88       1.0  0.24933933619738724  0.3233786509087366  0.785685742450724  1.0000
  H   H89       1.0  0.7647517000082118  0.2147640004184552  0.5398920672329908  1.0000
  H   H90       1.0  0.4800762653786066  0.16913426234906126  0.5487679563899662  1.0000
  H   H91       1.0  0.0018415681011135  0.20035678695420958  0.9490591656612539  1.0000
  H   H92       1.0  0.5554687290054189  0.5474199531299958  0.08538677509106662  1.0000
  H   H93       1.0  0.8062440911657022  0.4840341812858284  0.9404809472622376  1.0000
  H   H94       1.0  0.0599628566247503  0.3177826143828426  0.12456702372486461  1.0000
  H   H95       1.0  0.7167931926170611  0.35828093727509003  0.12302122919626872  1.0000
  H   H96       1.0  0.6071105897390724  0.4433160233553222  0.0737353903558571  1.0000
  H   H97       1.0  0.9314472499778648  0.4000450810693578  0.8777360471693642  1.0000
  H   H98       1.0  0.08679756831771362  0.1393735004982517  0.122995376028193  1.0000
  H   H99       1.0  0.09161571432874642  0.1341855960346621  0.2134624572044999  1.0000
  H   H100      1.0  0.8915909101067996  0.21930646941756748  0.7858694987131117  1.0000
  H   H101      1.0  0.06094268940953642  0.3210183940362227  0.21440809841222835  1.0000
  H   H102      1.0  0.7583492349558655  0.18109506214570803  0.1237305064093164  1.0000
  H   H103      1.0  0.9332993802889862  0.4056757161526148  0.787492456763843  1.0000
  H   H104      1.0  0.8933012439563441  0.22188613201396368  0.875414879871407  1.0000
  H   H105      1.0  0.7035855830852712  0.36277022177284113  0.21358715472671017  1.0000
  H   H106      1.0  0.7493593750960628  0.17661555383838848  0.2143124591216861  1.0000
  H   H107      1.0  0.26475293436776337  0.28523319330034974  0.46010572200653144  1.0000
  H   H108      1.0  0.9800805444088001  0.3308637434557085  0.4512309885534904  1.0000
  H   H109      1.0  0.4981595448805721  0.7003578441971287  0.5509414708659223  1.0000
  H   H110      1.0  0.9445279373953925  0.0474169429606448  0.41461311673021584  1.0000
  H   H111      1.0  0.6937581375124183  0.9840320584715269  0.5595259849910619  1.0000
  H   H112      1.0  0.4400381169389149  0.8177751901425765  0.375434215658082  1.0000
  H   H113      1.0  0.7831999321791656  0.8582859639137083  0.3769832794889539  1.0000
  H   H114      1.0  0.892869831534725  0.9433131639622019  0.42626490895796815  1.0000
  H   H115      1.0  0.5685510460526828  0.9000477311293835  0.6222667106851177  1.0000
  H   H116      1.0  0.4132064156868013  0.639370028304235  0.3770040570183256  1.0000
  H   H117      1.0  0.4083981077814656  0.6341862057497919  0.28653805951768163  1.0000
  H   H118      1.0  0.6084182462359777  0.7193084181764107  0.7141245208181815  1.0000
  H   H119      1.0  0.4390582472380374  0.8210159086916845  0.2855953348945022  1.0000
  H   H120      1.0  0.741658621218484  0.6810997482351125  0.37627183370123873  1.0000
  H   H121      1.0  0.5667017853107766  0.9056738667253936  0.7125121350696872  1.0000
  H   H122      1.0  0.6067069050491584  0.7218895666091925  0.6245824261065495  1.0000
  H   H123      1.0  0.7964065126537321  0.8627754021119853  0.2864180919180157  1.0000
  H   H124      1.0  0.7506534216153753  0.6766221308096334  0.2856902368486303  1.0000
  H   H125      1.0  0.2352444984058977  0.7852330831013602  0.0398914432960993  1.0000
  H   H126      1.0  0.5199256055667192  0.8308628455283152  0.0487694560216028  1.0000
  H   H127      1.0  0.9981642273101345  0.7996427153859075  0.44905948693294573  1.0000
  H   H128      1.0  0.4445333159137164  0.4525820065780906  0.5853833861681326  1.0000
  H   H129      1.0  0.19375895889825764  0.5159665933264674  0.44047773917096583  1.0000
  H   H130      1.0  0.9400363722437535  0.6822242041992012  0.6245658284659115  1.0000
  H   H131      1.0  0.28320020281346814  0.6417237173699419  0.6230168860882088  1.0000
  H   H132      1.0  0.3928838877422863  0.5566850405058901  0.5737334583096185  1.0000
  H   H133      1.0  0.0685601113632401  0.599947746422096  0.3777352138741677  1.0000
  H   H134      1.0  0.9132026729530268  0.860629426318759  0.6229967994641755  1.0000
  H   H135      1.0  0.9083874303338534  0.8658115319246632  0.7134620826721657  1.0000
  H   H136      1.0  0.10841260056972864  0.7806912892253236  0.285879467826561  1.0000
  H   H137      1.0  0.9390447880313888  0.6789804642922944  0.7144068998899159  1.0000
  H   H138      1.0  0.2416500122957999  0.8189095944431056  0.6237288252289304  1.0000
  H   H139      1.0  0.0667168076451503  0.5943237746689078  0.28748870140912436  1.0000
  H   H140      1.0  0.1067071461656184  0.778107552994058  0.3754212032286333  1.0000
  H   H141      1.0  0.2964077798354552  0.6372316578647528  0.7135813035244782  1.0000
  H   H142      1.0  0.25064570669745484  0.8233867597217567  0.714310758805894  1.0000
  H   H143      1.0  0.7352477289945298  0.7147654754869633  0.9601070478742602  1.0000
  H   H144      1.0  0.019929114945178104  0.6691357648397085  0.9512304316329292  1.0000
  C   C1        1.0  0.8707722377655218  0.13720070685990046  0.0340073472186404  1.0000
  C   C2        1.0  0.7818451071815532  0.9577243702659498  0.0080690811677826  1.0000
  C   C3        1.0  0.776939309383593  0.05664499312512561  0.978707577153429  1.0000
  C   C4        1.0  0.5858430939904977  0.8125404730298197  0.7771285025143302  1.0000
  C   C5        1.0  0.8423421394656215  0.07532152538946951  0.020874022928261106  1.0000
  C   C6        1.0  0.7726260977359304  0.7697757821379977  0.22301676672183396  1.0000
  C   C7        1.0  0.4253120961956824  0.7274940639566765  0.22303257692314563  1.0000
  C   C8        1.0  0.7426775329771546  0.8956797798427089  0.003495521058091801  1.0000
  C   C9        1.0  0.885797117712265  0.033570699540263094  0.0543370338624101  1.0000
  C   C10       1.0  0.7454239940831047  0.9983280316765288  0.9730072716972202  1.0000
  C   C11       1.0  0.4351396106014391  0.7779202712646621  0.145861802008028  1.0000
  C   C12       1.0  0.7764463596548624  0.8193623054880631  0.14536290340539182  1.0000
  C   C13       1.0  0.8568165329340616  0.9755353589731894  0.04811971992956641  1.0000
  C   C14       1.0  0.574884545570079  0.8609886351565166  0.8555831372182466  1.0000
  C   C15       1.0  0.41895196602163765  0.6784062200590879  0.14524263683271954  1.0000
  C   C16       1.0  0.41687142191634763  0.676163662899178  0.19586134779854092  1.0000
  C   C17       1.0  0.5977559178550323  0.760964781501833  0.8038274670679684  1.0000
  C   C18       1.0  0.43371619808683454  0.7791669191921216  0.19646556669938783  1.0000
  C   C19       1.0  0.7528784630230023  0.719987348516767  0.14582406383006233  1.0000
  C   C20       1.0  0.5746376794532182  0.8634709210039448  0.804781764777573  1.0000
  C   C21       1.0  0.5964234520502742  0.7618118855305127  0.8544870152471589  1.0000
  C   C22       1.0  0.7836138291935342  0.8210529773425821  0.1959327472852621  1.0000
  C   C23       1.0  0.7585184664368398  0.7183715264923122  0.1963341122185938  1.0000
  C   C24       1.0  0.3707683271833986  0.36279711257400754  0.9659959470904911  1.0000
  C   C25       1.0  0.2818393892042934  0.5422766752836238  0.9919325470145992  1.0000
  C   C26       1.0  0.2769307740959803  0.44335174129462723  0.02129673715658951  1.0000
  C   C27       1.0  0.08584967275400152  0.6874618767071611  0.2228737330681909  1.0000
  C   C28       1.0  0.34234505880021965  0.4246780856628546  0.9791293594780228  1.0000
  C   C29       1.0  0.27262197973566776  0.7302330590247762  0.776982337825757  1.0000
  C   C30       1.0  0.9253040212335224  0.7725040676560582  0.7769671482445162  1.0000
  C   C31       1.0  0.242670029855546  0.6043191940020237  0.9965054993040283  1.0000
  C   C32       1.0  0.38580225191354606  0.4664253583704935  0.9456647554625877  1.0000
  C   C33       1.0  0.24541645396043785  0.5016687763036529  0.026995198557166603  1.0000
  C   C34       1.0  0.9351392169795506  0.7220791340807009  0.8541386218959773  1.0000
  C   C35       1.0  0.27644990284050414  0.6806439354493747  0.8546372830929272  1.0000
  C   C36       1.0  0.3568177645615265  0.5244624945749691  0.9518864157181002  1.0000
  C   C37       1.0  0.0748904650167006  0.6390158988954225  0.1444184031255489  1.0000
  C   C38       1.0  0.918947491366133  0.8215936535965584  0.854758201845634  1.0000
  C   C39       1.0  0.9168582539965159  0.823834487683925  0.8041402265421455  1.0000
  C   C40       1.0  0.09776249519375572  0.7390371095354239  0.1961761900015162  1.0000
  C   C41       1.0  0.9337179075820573  0.7208311935291292  0.803533767807025  1.0000
  C   C42       1.0  0.2528789283812928  0.7800193773097207  0.8541765603127658  1.0000
  C   C43       1.0  0.0746415339670037  0.6365305900291459  0.19521941173009347  1.0000
  C   C44       1.0  0.09643506286246861  0.7381921681906148  0.1455162813445625  1.0000
  C   C45       1.0  0.2836106786776541  0.6789532474980007  0.8040655940040082  1.0000
  C   C46       1.0  0.25851708860678  0.7816343227882144  0.8036672236504929  1.0000
  C   C47       1.0  0.12923582472901535  0.8628006798805786  0.5340009956066183  1.0000
  C   C48       1.0  0.2181664585082146  0.0422734897655275  0.5080630413978612  1.0000
  C   C49       1.0  0.22306192358403373  0.9433567502772816  0.4786981843080228  1.0000
  C   C50       1.0  0.4141596308080651  0.18746071712034504  0.2771257937533349  1.0000
  C   C51       1.0  0.15765545443120027  0.9246789614380616  0.5208677039011462  1.0000
  C   C52       1.0  0.22737194767309182  0.23022050816863524  0.7230143463477036  1.0000
  C   C53       1.0  0.5746976836845833  0.2725052499565663  0.7230309856581699  1.0000
  C   C54       1.0  0.2573302215262885  0.10432065927225409  0.5034865641014505  1.0000
  C   C55       1.0  0.11420952054319863  0.9664285833044914  0.5543320247147037  1.0000
  C   C56       1.0  0.2545773640178126  0.0016724002653915994  0.47299995534731215  1.0000
  C   C57       1.0  0.5648601286530665  0.22208055861642612  0.6458634242885993  1.0000
  C   C58       1.0  0.22356512546095791  0.18063463555147055  0.645360762748993  1.0000
  C   C59       1.0  0.1431941534455561  0.024465202618614502  0.548113148565541  1.0000
  C   C60       1.0  0.42510569990672314  0.1390084509376166  0.3555762894132713  1.0000
  C   C61       1.0  0.5810546321792672  0.321592448416503  0.6452429445990262  1.0000
  C   C62       1.0  0.5831281975245518  0.32383816808907534  0.6958616535044513  1.0000
  C   C63       1.0  0.4022383975687234  0.23903345836045284  0.3038241666144614  1.0000
  C   C64       1.0  0.5662746069428766  0.2208366412219789  0.6964660883497872  1.0000
  C   C65       1.0  0.24710856434973752  0.28000959381912344  0.6458242315813508  1.0000
  C   C66       1.0  0.42536834989177663  0.13652645758286042  0.3047763697481756  1.0000
  C   C67       1.0  0.4035638837116977  0.23818692532309169  0.3544855320307932  1.0000
  C   C68       1.0  0.21640436889413195  0.17894798993729213  0.6959295317332562  1.0000
  C   C69       1.0  0.24146647405898855  0.28162944193319106  0.6963357590124843  1.0000
  C   C70       1.0  0.6292390521833227  0.6371989807385674  0.4659989178941403  1.0000
  C   C71       1.0  0.7181683986202786  0.4577246724848365  0.4919341630081462  1.0000
  C   C72       1.0  0.7230707221015749  0.5566418356686852  0.5212970631951706  1.0000
  C   C73       1.0  0.9141542431903106  0.31254089228894333  0.7228704386754359  1.0000
  C   C74       1.0  0.6576561648289427  0.5753189075778307  0.4791295693182249  1.0000
  C   C75       1.0  0.7273680354231048  0.2697711543241467  0.2769872047499859  1.0000
  C   C76       1.0  0.0746938175358594  0.2274958262463258  0.27696994478787224  1.0000
  C   C77       1.0  0.7573298343315998  0.3956787108154884  0.4965097897364431  1.0000
  C   C78       1.0  0.6142143749614348  0.5335715430070493  0.445666476945391  1.0000
  C   C79       1.0  0.754579049695032  0.4983265440640494  0.5269956778153215  1.0000
  C   C80       1.0  0.06485692756474752  0.27791751611173504  0.3541382658433108  1.0000
  C   C81       1.0  0.7235569876201426  0.3193622187675301  0.3546389771506639  1.0000
  C   C82       1.0  0.6431928583553843  0.47553356000003777  0.4518831943838961  1.0000
  C   C83       1.0  0.925099526867925  0.36099183806201307  0.6444184506874252  1.0000
  C   C84       1.0  0.0810339710330723  0.1784060218842994  0.3547550493586513  1.0000
  C   C85       1.0  0.08311454071450441  0.17616072948337086  0.30413524021245314  1.0000
  C   C86       1.0  0.9022488521920807  0.26096817781433396  0.6961735611398653  1.0000
  C   C87       1.0  0.0662783700639835  0.2791622941998497  0.3035359619900788  1.0000
  C   C88       1.0  0.7471152594618503  0.2199859117769307  0.3541772583390994  1.0000
  C   C89       1.0  0.9253551658498297  0.3634742627744174  0.6952187341512683  1.0000
  C   C90       1.0  0.9035744630396325  0.2618125481792148  0.6455136500192041  1.0000
  C   C91       1.0  0.7163904767767378  0.3210471527136746  0.3040673135536949  1.0000
  C   C92       1.0  0.7414733186785939  0.2183634847048381  0.30366793599884556  1.0000
  C   C93       1.0  0.1292320604725319  0.8628004088387441  0.9659957150996377  1.0000
  C   C94       1.0  0.2181631027089567  0.0422771773626209  0.9919303351305829  1.0000
  C   C95       1.0  0.2230649888723093  0.9433543948152303  0.021294755960305205  1.0000
  C   C96       1.0  0.4141612042783651  0.18746366623807378  0.222870184589766  1.0000
  C   C97       1.0  0.1576611808727151  0.9246795903097721  0.9791286747900971  1.0000
  C   C98       1.0  0.22736939941047757  0.23022360580923626  0.7769833787969773  1.0000
  C   C99       1.0  0.574694157895678  0.2725053239779811  0.7769672039775701  1.0000
  C   C100      1.0  0.25733263270416984  0.10432047196869833  0.9965060828445401  1.0000
  C   C101      1.0  0.1142198933206799  0.9664299841992798  0.9456620178200412  1.0000
  C   C102      1.0  0.2545744367615442  0.0016722201470571  0.0269936030207418  1.0000
  C   C103      1.0  0.5648656655701956  0.22207911667309327  0.8541394372999138  1.0000
  C   C104      1.0  0.22354718166378976  0.180639242158982  0.8546379713214096  1.0000
  C   C105      1.0  0.1432034118195986  0.024465756700870093  0.9518782379444846  1.0000
  C   C106      1.0  0.4251119295040908  0.1390163679938112  0.1444119038845457  1.0000
  C   C107      1.0  0.5810484206313833  0.3215931678841599  0.8547586024827964  1.0000
  C   C108      1.0  0.5831328763426384  0.323836588918823  0.8041402561131791  1.0000
  C   C109      1.0  0.4022444687998501  0.2390384938923091  0.1961715846427765  1.0000
  C   C110      1.0  0.5662910338993329  0.2208333326205789  0.8035345788020791  1.0000
  C   C111      1.0  0.2471150783581493  0.2800137671834547  0.8541713418749097  1.0000
  C   C112      1.0  0.4253578177021425  0.13653321827133877  0.1952150993330264  1.0000
  C   C113      1.0  0.40357497875038467  0.23819398150576626  0.14551495328055353  1.0000
  C   C114      1.0  0.2163816679793484  0.17894597866232692  0.8040652106245645  1.0000
  C   C115      1.0  0.2414760528427778  0.2816269975733762  0.8036631164894744  1.0000
  C   C116      1.0  0.6292291257784584  0.6372022753700293  0.0340034692224336  1.0000
  C   C117      1.0  0.7181600195696377  0.4577240084746847  0.0080657754922768  1.0000
  C   C118      1.0  0.7230686346604003  0.5566485105268626  0.9787034083569992  1.0000
  C   C119      1.0  0.914150713897179  0.31253923899237185  0.7771267770461563  1.0000
  C   C120      1.0  0.6576602173744988  0.5753221661525457  0.0208711506279045  1.0000
  C   C121      1.0  0.727372539489167  0.2697680566818477  0.2230185368991116  1.0000
  C   C122      1.0  0.0746934317147847  0.22749488835066242  0.22303372647369465  1.0000
  C   C123      1.0  0.7573284010275857  0.3956806258777377  0.003492094000662901  1.0000
  C   C124      1.0  0.6142098696026181  0.5335735976182505  0.05433502542861391  1.0000
  C   C125      1.0  0.7545819769045183  0.4983293158223248  0.9730049469558324  1.0000
  C   C126      1.0  0.0648582359746257  0.27792370937641653  0.14585970061603604  1.0000
  C   C127      1.0  0.7235534174929087  0.3193580441285135  0.14536541462627642  1.0000
  C   C128      1.0  0.6431914231960649  0.4755377572400405  0.048117011193184615  1.0000
  C   C129      1.0  0.9251167669469923  0.3609847848590989  0.8555835653834765  1.0000
  C   C130      1.0  0.081053873175847  0.17840832598152898  0.1452430374708911  1.0000
  C   C131      1.0  0.0831362652590926  0.17616403638476186  0.195859189774481  1.0000
  C   C132      1.0  0.9022398473018072  0.260963142279266  0.8038214032975406  1.0000
  C   C133      1.0  0.0662756337599788  0.2791690582979456  0.19646564851280604  1.0000
  C   C134      1.0  0.7471273256728423  0.2199830342026914  0.1458250435980375  1.0000
  C   C135      1.0  0.9253637421892407  0.36347009372757805  0.8047825567819589  1.0000
  C   C136      1.0  0.9035731470748233  0.26180678779801525  0.8544802181398554  1.0000
  C   C137      1.0  0.716385796361088  0.3210474362666034  0.1959349161159736  1.0000
  C   C138      1.0  0.7414862317100059  0.2183663609747056  0.19633766167601155  1.0000
  C   C139      1.0  0.870761628224834  0.1371987080644601  0.4659991499091589  1.0000
  C   C140      1.0  0.7818319723721316  0.9577233065414815  0.4919363749110204  1.0000
  C   C141      1.0  0.7769325956882087  0.05664306960637329  0.5212990444013031  1.0000
  C   C142      1.0  0.5858466232817606  0.8125382388754901  0.7228743517483879  1.0000
  C   C143      1.0  0.8423390648299505  0.0753199945689502  0.4791309832130467  1.0000
  C   C144      1.0  0.7726215936870916  0.769775856205037  0.2769854345697595  1.0000
  C   C145      1.0  0.4253066145928699  0.7274945699201041  0.2769691598474182  1.0000
  C   C146      1.0  0.742666253539852  0.8956787286718821  0.49651212301013464  1.0000
  C   C147      1.0  0.8857849987204105  0.03356994076320059  0.445666662399077  1.0000
  C   C148      1.0  0.7454210668727015  0.9983261237964032  0.5269976379561214  1.0000
  C   C149      1.0  0.4351451475130262  0.7779183973830044  0.3541385442217688  1.0000
  C   C150      1.0  0.7764362391053227  0.8193651843284967  0.35463938276114965  1.0000
  C   C151      1.0  0.8568032995510748  0.9755315936869876  0.4518844447377219  1.0000
  C   C152      1.0  0.5748839299028959  0.8609857537373389  0.6444187516895994  1.0000
  C   C153      1.0  0.4189525998093586  0.6784073714568778  0.3547572009020215  1.0000
  C   C154      1.0  0.4168741449479185  0.6761612198504706  0.3041384920037515  1.0000
  C   C155      1.0  0.597765900705653  0.7609654976385799  0.696176708093148  1.0000
  C   C156      1.0  0.4337296913339586  0.7791618828377339  0.3035347863573961  1.0000
  C   C157      1.0  0.7528839990894981  0.7199897941309104  0.3541755493405745  1.0000
  C   C158      1.0  0.5746271472909399  0.8634707706647614  0.6952215881599673  1.0000
  C   C159      1.0  0.5964306355081845  0.7618094390549928  0.6455182595008538  1.0000
  C   C160      1.0  0.7835979736174469  0.8210522618754014  0.3040666031600948  1.0000
  C   C161      1.0  0.758521199838242  0.7183712418423056  0.3036654803239927  1.0000
  C   C162      1.0  0.37076329028606386  0.3627995433233408  0.534001956816077  1.0000
  C   C163      1.0  0.2818378554886393  0.54227514738664  0.5080637948858566  1.0000
  C   C164      1.0  0.27693259830046907  0.4433558245104762  0.4787016239041222  1.0000
  C   C165      1.0  0.08584809927385352  0.6874606553467189  0.2771293422334438  1.0000
  C   C166      1.0  0.3423403102245643  0.4246791845508398  0.5208709407992274  1.0000
  C   C167      1.0  0.2726225721739084  0.730230825266517  0.7230143991846348  1.0000
  C   C168      1.0  0.9253016796074649  0.7725026978232705  0.7230309299329463  1.0000
  C   C169      1.0  0.24267641979024296  0.6043202451763463  0.5034874389538616  1.0000
  C   C170      1.0  0.3857889454316846  0.4664269810512564  0.5543325747561738  1.0000
  C   C171      1.0  0.24542329278235542  0.5016719799968568  0.4730044676920429  1.0000
  C   C172      1.0  0.9351385695770348  0.7220805760190385  0.6458629734785148  1.0000
  C   C173      1.0  0.27644339899042353  0.6806432163272262  0.6453629913736024  1.0000
  C   C174      1.0  0.3568085062262868  0.5244649640609679  0.5481162219221289  1.0000
  C   C175      1.0  0.0748949923430615  0.639011005402402  0.35558278864055376  1.0000
  C   C176      1.0  0.9189458796771461  0.8215920702605427  0.6452436377774333  1.0000
  C   C177      1.0  0.9168682437124293  0.8238377945964995  0.6958627177166506  1.0000
  C   C178      1.0  0.0977632693127077  0.7390320739928737  0.30382658435402743  1.0000
  C   C179      1.0  0.9337151712608076  0.720835365995299  0.6964663711386407  1.0000
  C   C180      1.0  0.2528792597208279  0.7800190913860944  0.6458254393966882  1.0000
  C   C181      1.0  0.0746403312922723  0.6365272848684285  0.3047806821667934  1.0000
  C   C182      1.0  0.09643179104835302  0.7381881355729049  0.3544857662813499  1.0000
  C   C183      1.0  0.2836089319507025  0.6789539629894675  0.6959350195692977  1.0000
  C   C184      1.0  0.25851728891133524  0.7816376310086854  0.696334761739216  1.0000
  S   S1        1.0  0.7405635432536712  0.10275837418668486  0.927761921074307  1.0000
  S   S2        1.0  0.24055637063462143  0.3972401697052277  0.072240682958153  1.0000
  S   S3        1.0  0.25943098499869416  0.8972415016382698  0.4277519609767211  1.0000
  S   S4        1.0  0.7594303164243003  0.602755274856193  0.5722424446273777  1.0000
  S   S5        1.0  0.2594368433839591  0.8972423095755319  0.07224004744532661  1.0000
  S   S6        1.0  0.7594391265296282  0.6027574904837181  0.9277587333561144  1.0000
  S   S7        1.0  0.7405635342689224  0.1027570224289178  0.5722463615356261  1.0000
  S   S8        1.0  0.24056615865876554  0.39724324920779713  0.4277551486790829  1.0000
  N   N1        1.0  0.7598176598917378  0.7697100014016556  0.12074681540571673  1.0000
  N   N2        1.0  0.5845012639955556  0.8110163022673688  0.8803110715782552  1.0000
  N   N3        1.0  0.4288737639690297  0.7282951667742239  0.12055988269305123  1.0000
  N   N4        1.0  0.25982107488459866  0.7302949810741808  0.8792530580231388  1.0000
  N   N5        1.0  0.08450520119112781  0.6889912337588981  0.11969116817180492  1.0000
  N   N6        1.0  0.9288761611137347  0.7717038207045305  0.8794401960228982  1.0000
  N   N7        1.0  0.24017871921790865  0.230288599847178  0.6207425324637228  1.0000
  N   N8        1.0  0.41549235014280583  0.1889795558821915  0.3803101846473282  1.0000
  N   N9        1.0  0.5711245750052499  0.2717064575383077  0.6205583009235128  1.0000
  N   N10       1.0  0.7401852751420323  0.26970821713154436  0.37925642672409776  1.0000
  N   N11       1.0  0.9154882673106005  0.31101902695839095  0.619687502052024  1.0000
  N   N12       1.0  0.07111942790179171  0.22829160311982824  0.3794440990004944  1.0000
  N   N13       1.0  0.24017294771390146  0.23029327400497823  0.8792533301244562  1.0000
  N   N14       1.0  0.4155020563557343  0.1889895647594173  0.1196879801304718  1.0000
  N   N15       1.0  0.5711285784963565  0.2717033572881816  0.8794413566185924  1.0000
  N   N16       1.0  0.7401832233710053  0.26970656656128966  0.12074818128841973  1.0000
  N   N17       1.0  0.9155010528937737  0.31100858611557664  0.8803089773307563  1.0000
  N   N18       1.0  0.0711261813359627  0.2282981588719508  0.120560678690687  1.0000
  N   N19       1.0  0.7598177558402242  0.7697107880979672  0.3792568838507151  1.0000
  N   N20       1.0  0.5845051028341076  0.8110150807308046  0.6196903254652426  1.0000
  N   N21       1.0  0.42888070115837723  0.7282929304004427  0.37944366758728165  1.0000
  N   N22       1.0  0.2598141335669766  0.7302989457201077  0.6207444479990871  1.0000
  N   N23       1.0  0.0845062519431679  0.6889812248665876  0.3803111850634338  1.0000
  N   N24       1.0  0.928875091335634  0.771705193195075  0.6205578695244399  1.0000
  O   O1        1.0  0.5593384049511271  0.795183731552626  0.0357990289926633  1.0000
  O   O2        1.0  0.7544915659624041  0.7556390202657681  0.9689960407036653  1.0000
  O   O3        1.0  0.7837542093646945  0.8618299901241  0.0365027915978118  1.0000
  O   O4        1.0  0.9931333107592906  0.14874069761371797  0.03788506964892951  1.0000
  O   O5        1.0  0.777065293410196  0.17079836175198435  0.0437164965823911  1.0000
  O   O6        1.0  0.6694249768655566  0.8821005803153454  0.9671415683677582  1.0000
  O   O7        1.0  0.4567758433858273  0.7367247176311269  0.9587067021012246  1.0000
  O   O8        1.0  0.7740114498105584  0.0694708732460398  0.8844099979026796  1.0000
  O   O9        1.0  0.6002342413989723  0.1170302434942272  0.9310639829574898  1.0000
  O   O10       1.0  0.8253963277578151  0.15451109739477428  0.9340205881854189  1.0000
  O   O11       1.0  0.059335355644954305  0.7048156541622461  0.9642025595381087  1.0000
  O   O12       1.0  0.25448997406759594  0.7443625186647863  0.0310027554310892  1.0000
  O   O13       1.0  0.2837538906277928  0.6381654359173793  0.9634973722486324  1.0000
  O   O14       1.0  0.4931296167659058  0.3512564149969463  0.962120033065979  1.0000
  O   O15       1.0  0.27706002297908583  0.32920225982746126  0.956282348314524  1.0000
  O   O16       1.0  0.16941989542677763  0.6178994219706978  0.032861137409867104  1.0000
  O   O17       1.0  0.9567742460591122  0.7632750710476656  0.041292925550628516  1.0000
  O   O18       1.0  0.27401761475292835  0.4305258677316885  0.1155921378495606  1.0000
  O   O19       1.0  0.1002224142768853  0.3829733669931415  0.0689427019874032  1.0000
  O   O20       1.0  0.32538597058011487  0.3454872559161116  0.0659773777345407  1.0000
  O   O21       1.0  0.4406686402801085  0.2048142045973336  0.535796627272049  1.0000
  O   O22       1.0  0.24550988013265143  0.24436312843170074  0.46899433016331227  1.0000
  O   O23       1.0  0.2162586878625632  0.13817097152088556  0.5364965801551236  1.0000
  O   O24       1.0  0.0068776003075044  0.8512594039499957  0.5378798039307995  1.0000
  O   O25       1.0  0.22294842330661882  0.8292069390860632  0.5437116120495916  1.0000
  O   O26       1.0  0.33058335535595523  0.11789940357873262  0.46713314934285693  1.0000
  O   O27       1.0  0.5432258286229654  0.26327524312885225  0.45870483501484943  1.0000
  O   O28       1.0  0.22597620698746113  0.930531475236357  0.3843991125868628  1.0000
  O   O29       1.0  0.39975825854344293  0.8829730969088769  0.43105283094485003  1.0000
  O   O30       1.0  0.17459610723577873  0.8454926830668795  0.4340126130750123  1.0000
  O   O31       1.0  0.9406701073043778  0.2951834578013147  0.4642024398012055  1.0000
  O   O32       1.0  0.7455083752744615  0.25563713209408684  0.5310046125188777  1.0000
  O   O33       1.0  0.7162584331287078  0.3618280588959379  0.4635002655659619  1.0000
  O   O34       1.0  0.5068807814284284  0.6487413954276275  0.4621201241626522  1.0000
  O   O35       1.0  0.722956370762475  0.6707925109999876  0.4562876464232062  1.0000
  O   O36       1.0  0.8305813468248079  0.3820998019466515  0.5328633420844895  1.0000
  O   O37       1.0  0.043223877376256305  0.23672201631865866  0.541295099152741  1.0000
  O   O38       1.0  0.7259739879716423  0.5694645125380545  0.6155953966965341  1.0000
  O   O39       1.0  0.8997574998412221  0.6170272517949655  0.5689436919931411  1.0000
  O   O40       1.0  0.6745940086126866  0.6545055798344704  0.5659849722507816  1.0000
  O   O41       1.0  0.4406649154321514  0.20481652026296618  0.9642000227105854  1.0000
  O   O42       1.0  0.24551077651469203  0.2443616634902454  0.031003011001523403  1.0000
  O   O43       1.0  0.2162520447192904  0.13817069362852408  0.9634969893041687  1.0000
  O   O44       1.0  0.006873921183768101  0.8512586903263466  0.9621194510688228  1.0000
  O   O45       1.0  0.22294487225144624  0.829205345573996  0.9562851073236089  1.0000
  O   O46       1.0  0.3305832330163271  0.11789967149725561  0.0328593063350482  1.0000
  O   O47       1.0  0.5432313886098825  0.2632759661194015  0.0412923495963824  1.0000
  O   O48       1.0  0.22598991472862912  0.9305280827592878  0.11559306441803592  1.0000
  O   O49       1.0  0.3997671231568489  0.8829700083260617  0.068936891755925  1.0000
  O   O50       1.0  0.1746040588998241  0.8454895863649412  0.06597955732707561  1.0000
  O   O51       1.0  0.9406660089077834  0.295183733780405  0.0357990443773204  1.0000
  O   O52       1.0  0.7455153021191236  0.25563773314910776  0.9689966608705589  1.0000
  O   O53       1.0  0.7162513855672331  0.36183265620040567  0.036502408652332015  1.0000
  O   O54       1.0  0.5068717477948327  0.648742972944703  0.0378808416465972  1.0000
  O   O55       1.0  0.72293938580777  0.6707975600511985  0.043715244988654006  1.0000
  O   O56       1.0  0.8305804912243958  0.38210169372884206  0.9671393727044802  1.0000
  O   O57       1.0  0.0432280964047251  0.23672302107591747  0.9587086783620222  1.0000
  O   O58       1.0  0.7259827719330191  0.5694726563294098  0.8844065492551251  1.0000
  O   O59       1.0  0.899770149143592  0.6170286125933229  0.9310574435384782  1.0000
  O   O60       1.0  0.6746046370652224  0.6545125639734408  0.9340209447851322  1.0000
  O   O61       1.0  0.5593356580142769  0.7951847513991909  0.4642024244284216  1.0000
  O   O62       1.0  0.7544875728261219  0.7556353956346981  0.5310058153516195  1.0000
  O   O63       1.0  0.7837387651088435  0.8618288483609787  0.46350174235394104  1.0000
  O   O64       1.0  0.9931208305509857  0.1487391201158061  0.46212070618404516  1.0000
  O   O65       1.0  0.7770490296512308  0.170792448858478  0.45628816886476653  1.0000
  O   O66       1.0  0.6694160534182672  0.8820991204844616  0.5328662669661952  1.0000
  O   O67       1.0  0.4567706464397929  0.7367254406327532  0.5412934874965742  1.0000
  O   O68       1.0  0.7740280913269331  0.06946748075767319  0.6155981161064688  1.0000
  O   O69       1.0  0.6002294153657531  0.11702197165792677  0.5689502313932877  1.0000
  O   O70       1.0  0.8253896109029456  0.1545071368266662  0.565984615647956  1.0000
  O   O71       1.0  0.05933321307427521  0.7048154981978173  0.5357977057050576  1.0000
  O   O72       1.0  0.2544890776726305  0.7443648474858906  0.4689948037965763  1.0000
  O   O73       1.0  0.2837390198611659  0.6381713290446028  0.5364965985369707  1.0000
  O   O74       1.0  0.4931215610295753  0.3512584244527445  0.537881115150256  1.0000
  O   O75       1.0  0.27705086123536665  0.3292042852991344  0.5437132282777455  1.0000
  O   O76       1.0  0.1694278410063674  0.617900881798171  0.4671331574000988  1.0000
  O   O77       1.0  0.9567716197719847  0.7632756438722836  0.45870577556723907  1.0000
  O   O78       1.0  0.27403324402836654  0.4305340115168547  0.3844043842018223  1.0000
  O   O79       1.0  0.10023604153224851  0.3829773194183303  0.43105061991092  1.0000
  O   O80       1.0  0.3253907316010612  0.3454916484287409  0.4340155378840223  1.0000
