data_image0
_chemical_formula_structural       C52H34N16O4Zn4
_chemical_formula_sum              "C52 H34 N16 O4 Zn4"
_cell_length_a       14.78340514478724
_cell_length_b       14.868723206193964
_cell_length_c       14.962165454058875
_cell_angle_alpha    112.8590339784345
_cell_angle_beta     100.92292421480606
_cell_angle_gamma    113.6174146426772

_space_group_name_H-M_alt    "P 1"
_space_group_IT_number       1

loop_
  _space_group_symop_operation_xyz
  'x, y, z'

loop_
  _atom_site_type_symbol
  _atom_site_label
  _atom_site_symmetry_multiplicity
  _atom_site_fract_x
  _atom_site_fract_y
  _atom_site_fract_z
  _atom_site_occupancy
  C   C1        1.0  0.09748506544264755  0.38819005463263767  0.1753131707496252  1.0000
  C   C2        1.0  0.8515474612435979  0.9966685013177351  0.3153616168219954  1.0000
  C   C3        1.0  0.3026108522903925  0.24249731564357552  0.30683405408068865  1.0000
  C   C4        1.0  0.05319114309281046  0.3900775637111237  0.25394681217596127  1.0000
  C   C5        1.0  0.3798519986897303  0.26050515750619496  0.16547816947336  1.0000
  C   C6        1.0  0.8991281715890125  0.006833146784146  0.7073727782299528  1.0000
  C   C7        1.0  0.6965456783327681  0.9901761599087777  0.8922894248137683  1.0000
  C   C8        1.0  0.29202999550905423  0.9706410291796885  0.8257854381422051  1.0000
  C   C9        1.0  0.4946209927276542  0.8770707961598133  0.8108316081377467  1.0000
  C   C10       1.0  0.39600986454352943  0.8715731104069986  0.7950100458972572  1.0000
  C   C11       1.0  0.2977768673039878  0.22123313374844145  0.2046987399191523  1.0000
  C   C12       1.0  0.5925831636686141  0.9774628688324184  0.8475908443796598  1.0000
  C   C13       1.0  0.38574976829549007  0.9658946610232135  0.8137260663310145  1.0000
  C   C14       1.0  0.5805515278896748  0.0692886967431505  0.8535775900785938  1.0000
  C   C15       1.0  0.48176861935491627  0.06356271717544357  0.8371444461785915  1.0000
  C   C16       1.0  0.33678583501461656  0.7516173583831787  0.7772108968710401  1.0000
  C   C17       1.0  0.4481742215651678  0.7575253746282727  0.7944404497170866  1.0000
  C   C18       1.0  0.5074949824313322  0.38078255385875087  0.5869352165503018  1.0000
  C   C19       1.0  0.22123967246629658  0.7262623883879371  0.12017152938079795  1.0000
  C   C20       1.0  0.41700816271113433  0.29929892011644194  0.49045460538679464  1.0000
  C   C21       1.0  0.23063946015799516  0.6402808925884498  0.1290939330935359  1.0000
  C   C22       1.0  0.3977447658071682  0.322603827712733  0.4087330576450655  1.0000
  C   C23       1.0  0.15944666541270178  0.5710216587649838  0.15747999495911816  1.0000
  C   C24       1.0  0.7833036673074146  0.638681035309922  0.7082293827373008  1.0000
  C   C25       1.0  0.0335398199246129  0.8460200827606599  0.12929206415180527  1.0000
  C   C26       1.0  0.471066326807545  0.430847753609612  0.42758440623630634  1.0000
  C   C27       1.0  0.6795308840569946  0.5763425690383812  0.7025890332292735  1.0000
  C   C28       1.0  0.08545951317165656  0.5998406438570002  0.18648301567316858  1.0000
  C   C29       1.0  0.5612422123286366  0.5113656363178547  0.5229705883877146  1.0000
  C   C30       1.0  0.07667219727880346  0.6859829512053964  0.17830895020648552  1.0000
  C   C31       1.0  0.5816849845492342  0.4877594557918882  0.6044588839187669  1.0000
  C   C32       1.0  0.14014770736088872  0.7475455617594873  0.13957491504514508  1.0000
  C   C33       1.0  0.10963061866958412  0.8163462385457122  0.1078747428591811  1.0000
  C   C34       1.0  0.7986366866455582  0.8962752675380158  0.41406256067840996  1.0000
  C   C35       1.0  0.8091458027740968  0.8988249555298818  0.5093770795682673  1.0000
  C   C36       1.0  0.8640332407029021  0.0031530744151452993  0.6071823653434834  1.0000
  C   C37       1.0  0.8424289366455187  0.9979355109935851  0.4112850417253784  1.0000
  C   C38       1.0  0.896681714651436  0.10378667636303618  0.6029152100316184  1.0000
  C   C39       1.0  0.886337444092284  0.1012361342601693  0.5074777101711092  1.0000
  C   C40       1.0  0.9798576079217085  0.1025684283051476  0.8068088384663457  1.0000
  C   C41       1.0  0.9102012927116617  0.09054126790928757  0.3045074629242991  1.0000
  C   C42       1.0  0.7153900885272292  0.902106233315443  0.8832395107992499  1.0000
  C   C43       1.0  0.18932165545658822  0.8814630148560241  0.8001103294642748  1.0000
  C   C44       1.0  0.878542885118577  0.9138151243200737  0.7222278013699467  1.0000
  C   C45       1.0  0.8159598821014029  0.9015402509332728  0.21530624395639109  1.0000
  C   C46       1.0  0.7948770137582956  0.09082983758502648  0.9718883725955366  1.0000
  C   C47       1.0  0.29067733304320603  0.06999143886043409  0.8843394346687604  1.0000
  C   C48       1.0  0.6928723997408142  0.6283420937454735  0.8088777123145547  1.0000
  C   C49       1.0  0.12692631156665615  0.8435339197788353  0.029894941873386913  1.0000
  C   C50       1.0  0.18465383829873622  0.4025951183185014  0.07216460899974211  1.0000
  C   C51       1.0  0.193328684276544  0.18842434479615378  0.2897293268490558  1.0000
  C   C52       1.0  0.15242284734041078  0.464817758633238  0.1424886223892727  1.0000
  H   H1        1.0  0.30636661062098375  0.7452742119124948  0.8375510888328963  1.0000
  H   H2        1.0  0.2758153951307563  0.7754458449968382  0.09470797467606226  1.0000
  H   H3        1.0  0.5225997530289989  0.3601998457579184  0.6486010984026223  1.0000
  H   H4        1.0  0.3619467544979358  0.2155893844741499  0.4775142020849615  1.0000
  H   H5        1.0  0.29276431471644326  0.624390617179067  0.1109390476078573  1.0000
  H   H6        1.0  0.4551107834682995  0.45254246668093145  0.3670016694394392  1.0000
  H   H7        1.0  0.030129425673877143  0.5502971224254195  0.21075896961752963  1.0000
  H   H8        1.0  0.4483172122557165  0.6940230940465925  0.7250429472274293  1.0000
  H   H9        1.0  0.6158306806121204  0.5956597389147547  0.5366927090181266  1.0000
  H   H10       1.0  0.013919803781924207  0.7007439129141846  0.1958592925006358  1.0000
  H   H11       1.0  0.760444323921952  0.8138220718294916  0.3407584183101093  1.0000
  H   H12       1.0  0.7794684541565289  0.8182890230597338  0.5084131815881536  1.0000
  H   H13       1.0  0.9348937722706268  0.18622718782494732  0.6762132378153681  1.0000
  H   H14       1.0  0.9165543202895636  0.18166171304389422  0.5081289426294691  1.0000
  H   H15       1.0  0.8108054147029905  0.6262655599545965  0.644409503745756  1.0000
  H   H16       1.0  0.9971018005847369  0.8415328205660229  0.18521364374979757  1.0000
  H   H17       1.0  0.021365388774675868  0.19303229250757423  0.8327841191323132  1.0000
  H   H18       1.0  0.9528790630228627  0.18186820809434315  0.36146724473303504  1.0000
  H   H19       1.0  0.6626905149514072  0.8099919719266564  0.8304653116951785  1.0000
  H   H20       1.0  0.15404882845401607  0.7893048713126092  0.7554328242172518  1.0000
  H   H21       1.0  0.8213391501611724  0.8227017881336848  0.6675003621297009  1.0000
  H   H22       1.0  0.7679103581654658  0.8105520003407632  0.1862161617837259  1.0000
  H   H23       1.0  0.8171369662166298  0.17971794252368056  0.006158444186091556  1.0000
  H   H24       1.0  0.2714300779648299  0.6842670640321911  0.6979536245408298  1.0000
  H   H25       1.0  0.3541969906970622  0.15916896311238557  0.9234520131189186  1.0000
  H   H26       1.0  0.6331750126768938  0.6093715258726532  0.8421106768003314  1.0000
  H   H27       1.0  0.17841776562534048  0.833998692863197  0.9884669611655428  1.0000
  H   H28       1.0  0.22759595367639923  0.42586324669075987  0.02585726719663481  1.0000
  H   H29       1.0  0.157761167178073  0.1850604228553365  0.3464649275973102  1.0000
  H   H30       1.0  0.4821237031880016  0.7542256591566454  0.8644046502195339  1.0000
  H   H31       1.0  0.6517649908513972  0.1492960506397978  0.8756575503721467  1.0000
  H   H32       1.0  0.4794689860891452  0.13918194682738516  0.8468039340781459  1.0000
  H   H33       1.0  0.03668841044220273  0.476673062022094  0.3727164678640521  1.0000
  H   H34       1.0  0.5254654882205827  0.3119539452897371  0.18767500623247463  1.0000
  N   N1        1.0  0.09663151788155495  0.28937179232937643  0.12413287340218204  1.0000
  N   N2        1.0  0.9097684833977979  0.0540752327844203  0.20682546592585282  1.0000
  N   N3        1.0  0.006107781742393613  0.0680460711901105  0.8734328117147572  1.0000
  N   N4        1.0  0.8156937431699447  0.9473609062857022  0.9532288258794142  1.0000
  N   N5        1.0  0.13251861604459944  0.9251241004789744  0.8404523484129315  1.0000
  N   N6        1.0  0.9437775779987946  0.951909032258001  0.8212298718747421  1.0000
  N   N7        1.0  0.8509855974607418  0.9367853441874272  0.15144556018055508  1.0000
  N   N8        1.0  0.19300908652027718  0.160331790821779  0.1345862636460637  1.0000
  N   N9        1.0  0.8645806593166725  0.063494238871975  0.007928914557268688  1.0000
  N   N10       1.0  0.19603357556675155  0.0425359058662096  0.8938888221247796  1.0000
  N   N11       1.0  0.7962728349083292  0.7156359844138224  0.8723127562497413  1.0000
  N   N12       1.0  0.06365548721011983  0.8829026927683327  0.005749319410561781  1.0000
  N   N13       1.0  0.1506678953742053  0.29890767154787307  0.06316980863321929  1.0000
  N   N14       1.0  0.12952485934609106  0.14126934596825436  0.1865728924584289  1.0000
  N   N15       1.0  0.852546305646392  0.7210911937506804  0.8094605314980186  1.0000
  N   N16       1.0  0.006344886220027503  0.8842289064628231  0.06695593380133145  1.0000
  O   O1        1.0  0.005777562092646307  0.3037417914092231  0.2613592190512932  1.0000
  O   O2        1.0  0.06815701297363565  0.4907658326990968  0.3239960875145087  1.0000
  O   O3        1.0  0.3613115788531617  0.270384249955768  0.08670176426914372  1.0000
  O   O4        1.0  0.47864222767594805  0.2859092263500713  0.22169342815732315  1.0000
  Zn  Zn1       1.0  0.9931972932302315  0.149383495979464  0.14516916628791426  1.0000
  Zn  Zn2       1.0  0.1542681925048157  0.14816217234017867  0.9903694853157391  1.0000
  Zn  Zn3       1.0  0.9971136339648509  0.8645544733490663  0.8649605864486388  1.0000
  Zn  Zn4       1.0  0.8613885218102055  0.8652226947630552  0.012398644439699172  1.0000
