data_image0
_chemical_formula_structural       Zn8H168C240N24O32
_chemical_formula_sum              "Zn8 H168 C240 N24 O32"
_cell_length_a       13.945148562019359
_cell_length_b       20.03178512941111
_cell_length_c       30.786179071856797
_cell_angle_alpha    100.01222303502269
_cell_angle_beta     90.00001833159212
_cell_angle_gamma    90.00018345823248

_space_group_name_H-M_alt    "P 1"
_space_group_IT_number       1

loop_
  _space_group_symop_operation_xyz
  'x, y, z'

loop_
  _atom_site_type_symbol
  _atom_site_label
  _atom_site_symmetry_multiplicity
  _atom_site_fract_x
  _atom_site_fract_y
  _atom_site_fract_z
  _atom_site_occupancy
  Zn  Zn1       1.0  0.39935910015051956  0.25979205806631717  0.7469546178099622  1.0000
  Zn  Zn2       1.0  0.8993652042647469  0.24021334297785304  0.7530409704499237  1.0000
  Zn  Zn3       1.0  0.6006343266691803  0.7402091536829972  0.2530424260186877  1.0000
  Zn  Zn4       1.0  0.10063897898604782  0.7597888769859084  0.24695553419041275  1.0000
  Zn  Zn5       1.0  0.4715168424087253  0.8673162193923218  0.951644257650287  1.0000
  Zn  Zn6       1.0  0.9715230260933936  0.6326883631934026  0.5483566414636345  1.0000
  Zn  Zn7       1.0  0.5284794527957289  0.1326860371965637  0.04835647374152072  1.0000
  Zn  Zn8       1.0  0.028479722970203604  0.3673148931508051  0.4516425753344111  1.0000
  H   H1        1.0  0.5488943500709526  0.28909345502292183  0.8157584139675439  1.0000
  H   H2        1.0  0.048899451047098814  0.21090761804624947  0.6842415186967588  1.0000
  H   H3        1.0  0.451100510935035  0.7109057403243996  0.18423970824244415  1.0000
  H   H4        1.0  0.9511032980096488  0.7890926024203254  0.3157580151334472  1.0000
  H   H5        1.0  0.5939095237007593  0.3824702549916027  0.8762685728946737  1.0000
  H   H6        1.0  0.09392060756864853  0.11752841722709213  0.6237343518969782  1.0000
  H   H7        1.0  0.4060853373044041  0.6175284418908548  0.12373046918028763  1.0000
  H   H8        1.0  0.9060828585849094  0.8824723186133597  0.3762662128775249  1.0000
  H   H9        1.0  0.33189891286648526  0.4837363518144073  0.8495255583472173  1.0000
  H   H10       1.0  0.8319096542340603  0.016261844905749  0.6504750770990457  1.0000
  H   H11       1.0  0.6680988165262322  0.5162653724949565  0.15047219129161254  1.0000
  H   H12       1.0  0.1680966802947665  0.9837363591613626  0.34952553511294593  1.0000
  H   H13       1.0  0.3046583783047084  0.3901504902062669  0.7868038170812998  1.0000
  H   H14       1.0  0.80466744186117  0.10984561214124257  0.7131962598910848  1.0000
  H   H15       1.0  0.6953415023718889  0.6098507102785007  0.2131919262092695  1.0000
  H   H16       1.0  0.19533960976198017  0.8901520906438167  0.2868049470511594  1.0000
  H   H17       1.0  0.581987965514564  0.4383108028494434  0.9401624775093469  1.0000
  H   H18       1.0  0.08200376786074771  0.06168477736177641  0.5598375080739404  1.0000
  H   H19       1.0  0.41800115872955257  0.5616883981272098  0.059836294969173344  1.0000
  H   H20       1.0  0.918004717944875  0.9383098613670526  0.4401607645522248  1.0000
  H   H21       1.0  0.617645403497633  0.5285694578672206  0.0012672606955276995  1.0000
  H   H22       1.0  0.11765192117645283  0.9714250783509902  0.4987319433929261  1.0000
  H   H23       1.0  0.38234587202681786  0.4714276985279966  0.9987293388159489  1.0000
  H   H24       1.0  0.8823515449592494  0.02856805088723041  0.5012674631528429  1.0000
  H   H25       1.0  0.43720767032283453  0.66520721904255  0.9438897207749124  1.0000
  H   H26       1.0  0.9372054642355038  0.8347922082555642  0.5561099585901703  1.0000
  H   H27       1.0  0.5627929274434821  0.33479145530241544  0.05610672022239532  1.0000
  H   H28       1.0  0.06279656771973662  0.16520499042268713  0.44389151794631243  1.0000
  H   H29       1.0  0.4004849900094242  0.5736274398559474  0.8821137576494282  1.0000
  H   H30       1.0  0.9004889842987753  0.9263734164584888  0.6178854229939292  1.0000
  H   H31       1.0  0.5995148906662352  0.4263732593459295  0.11788258037124426  1.0000
  H   H32       1.0  0.0995144818508749  0.07362579017103602  0.38211399975723753  1.0000
  H   H33       1.0  0.7242274346542316  0.5984107431419403  0.006336276766433034  1.0000
  H   H34       1.0  0.2242300429381316  0.9015820181402103  0.4936630740420967  1.0000
  H   H35       1.0  0.2757681434472588  0.40158845784228003  0.9936624957134089  1.0000
  H   H36       1.0  0.7757741402913256  0.09841011698715361  0.50633849736861  1.0000
  H   H37       1.0  0.8501085672292846  0.6241926597317901  0.061325180562420235  1.0000
  H   H38       1.0  0.35010886720358064  0.8758034297883701  0.4386735797439487  1.0000
  H   H39       1.0  0.14988844506603982  0.37580805637490045  0.9386731082667911  1.0000
  H   H40       1.0  0.6498945989393407  0.1241927437815562  0.5613264851742275  1.0000
  H   H41       1.0  0.6713019597486111  0.7781440698566159  0.13683763346890035  1.0000
  H   H42       1.0  0.17130795418582787  0.721844033233282  0.36316444711035717  1.0000
  H   H43       1.0  0.32869218415504525  0.22185160523751796  0.8631633513123307  1.0000
  H   H44       1.0  0.8287033999857842  0.2781430637113261  0.636840145389286  1.0000
  H   H45       1.0  0.5427367343554935  0.7499294050356795  0.0828045107411626  1.0000
  H   H46       1.0  0.042739310829958306  0.750057889656162  0.41719746153085435  1.0000
  H   H47       1.0  0.45725884374000003  0.250066779797109  0.9171968547148028  1.0000
  H   H48       1.0  0.957265589480116  0.2499276724338984  0.582805338674419  1.0000
  H   H49       1.0  0.9654419983318692  0.6763938118756769  0.09415936626415095  1.0000
  H   H50       1.0  0.46543988443711737  0.8236025649974297  0.40584139218706394  1.0000
  H   H51       1.0  0.034560033640467204  0.3236114552353016  0.905838121883001  1.0000
  H   H52       1.0  0.5345628646119566  0.17639412112666267  0.5941593785402618  1.0000
  H   H53       1.0  0.08910935612849612  0.7023059898402764  0.15233439184695646  1.0000
  H   H54       1.0  0.5891100538616526  0.7976920447971736  0.34766714011453115  1.0000
  H   H55       1.0  0.9108912416591013  0.29770180904572635  0.8476630488630053  1.0000
  H   H56       1.0  0.4108926951986405  0.20230969642624796  0.6523325603344505  1.0000
  H   H57       1.0  0.8877249540800207  0.7868087034857824  0.24484673338666613  1.0000
  H   H58       1.0  0.38772581295493314  0.7131854691108688  0.25515442127914423  1.0000
  H   H59       1.0  0.11227492658726848  0.21318796572677462  0.7551520865309558  1.0000
  H   H60       1.0  0.6122711993414854  0.28681527235806936  0.7448467937637421  1.0000
  H   H61       1.0  0.7569998603581781  0.7683890723658209  0.1912257632588138  1.0000
  H   H62       1.0  0.25700299281707123  0.731605292158541  0.308774417889076  1.0000
  H   H63       1.0  0.2429985861144672  0.23160558325940886  0.8087744601744122  1.0000
  H   H64       1.0  0.7429983220430219  0.2683919093369056  0.6912273837821064  1.0000
  H   H65       1.0  0.6193293472404379  0.7784889906237  0.988248529185633  1.0000
  H   H66       1.0  0.11933437522616692  0.7215157799472465  0.5117523364591463  1.0000
  H   H67       1.0  0.38066407959289716  0.2215173325855133  0.011753947061734504  1.0000
  H   H68       1.0  0.8806683738246692  0.27848190592460054  0.4882469196731024  1.0000
  H   H69       1.0  0.7590263859624714  0.7983212634338275  0.037342339589521635  1.0000
  H   H70       1.0  0.25902805547442403  0.7016801857979473  0.46265666913497955  1.0000
  H   H71       1.0  0.24096990925107784  0.20168504005255275  0.9626578607144582  1.0000
  H   H72       1.0  0.7409718251944144  0.29831699878764084  0.5373431817267973  1.0000
  H   H73       1.0  0.7407171337951938  0.0108575751534516  0.025616568840519008  1.0000
  H   H74       1.0  0.24071511042033225  0.4891459059095381  0.4743857157155704  1.0000
  H   H75       1.0  0.25928848364719675  0.989145148912911  0.9743796662048542  1.0000
  H   H76       1.0  0.7592826189607111  0.5108502732897191  0.5256149994711381  1.0000
  H   H77       1.0  0.6022507504969072  0.9813114338320195  0.9770051666560281  1.0000
  H   H78       1.0  0.1022541390410936  0.518696352292885  0.5229976508906662  1.0000
  H   H79       1.0  0.39774913019330443  0.018695356851303302  0.02299281324430781  1.0000
  H   H80       1.0  0.897742873250472  0.48130235868223564  0.4770030168589942  1.0000
  H   H81       1.0  0.8791771915089868  0.8188474078716013  0.07328774130014892  1.0000
  H   H82       1.0  0.3791744389516154  0.6811528136142259  0.4267124506575045  1.0000
  H   H83       1.0  0.12082555755600313  0.18115683976627392  0.926708985498266  1.0000
  H   H84       1.0  0.6208218562450512  0.31884590581414335  0.5732891924965744  1.0000
  H   H85       1.0  0.9913481864044301  0.8465395607395724  0.13481744574334448  1.0000
  H   H86       1.0  0.4913459805381209  0.6534614166076552  0.365181222118011  1.0000
  H   H87       1.0  0.008652411373830701  0.15346418561289002  0.8651798757847333  1.0000
  H   H88       1.0  0.5086481633743888  0.3465382997479197  0.6348185813056875  1.0000
  H   H89       1.0  0.9411102737797208  0.05962341925046391  0.13712958023285896  1.0000
  H   H90       1.0  0.44110723099046123  0.44037745356905594  0.36286822657960743  1.0000
  H   H91       1.0  0.058893192382662114  0.9403818365900847  0.8628666073751748  1.0000
  H   H92       1.0  0.5588955180662865  0.5596227668975191  0.6371313072505987  1.0000
  H   H93       1.0  0.8256650241960416  0.0325982105371025  0.07775833155152873  1.0000
  H   H94       1.0  0.3256642985143828  0.46740139182757195  0.42224094247437466  1.0000
  H   H95       1.0  0.17433987615581262  0.9674065412042128  0.9222381256520652  1.0000
  H   H96       1.0  0.6743398847264076  0.5325958012171484  0.5777598837928367  1.0000
  H   H97       1.0  0.17071192311532002  0.9998329787756293  0.23459210512808687  1.0000
  H   H98       1.0  0.6707133494731821  0.5001687984647845  0.265410174237637  1.0000
  H   H99       1.0  0.8292879575737973  0.00017378654544589962  0.765402948558574  1.0000
  H   H100      1.0  0.329287248300041  0.4998319542804737  0.7345923413453976  1.0000
  H   H101      1.0  0.17062667810858304  0.0907725515012174  0.2993426500888107  1.0000
  H   H102      1.0  0.6706349546955367  0.4092257157541042  0.20066132625026264  1.0000
  H   H103      1.0  0.8293660316209428  0.9092306963771292  0.7006555913026207  1.0000
  H   H104      1.0  0.3293692285379778  0.5907674726635508  0.799344908127573  1.0000
  H   H105      1.0  0.8827640599205823  0.145309271271671  0.26716514020091614  1.0000
  H   H106      1.0  0.38277057174874335  0.3546904593580749  0.23283350699188796  1.0000
  H   H107      1.0  0.1172257814268249  0.8546934725023974  0.7328333707851872  1.0000
  H   H108      1.0  0.6172343285834289  0.6453047257378942  0.76716937306108  1.0000
  H   H109      1.0  0.8830069254424373  0.05495331207699652  0.20319458705861856  1.0000
  H   H110      1.0  0.38300529167603514  0.4450479229613722  0.2968022760418522  1.0000
  H   H111      1.0  0.1169886526709689  0.9450514396533907  0.7968018701430569  1.0000
  H   H112      1.0  0.6169924377154105  0.554952812872351  0.7031982887314714  1.0000
  H   H113      1.0  0.18196419821470763  0.19196663660451924  0.3330860804792267  1.0000
  H   H114      1.0  0.6819712697613555  0.3080301223879758  0.1669161082198088  1.0000
  H   H115      1.0  0.818028511501275  0.80803006359794  0.6669163159203041  1.0000
  H   H116      1.0  0.31803291347603857  0.6919650739792688  0.8330880723724194  1.0000
  H   H117      1.0  0.17522158834039908  0.28538120465723443  0.39737647684685856  1.0000
  H   H118      1.0  0.6752246006141079  0.21461754083316015  0.10262300502866856  1.0000
  H   H119      1.0  0.8247739897475201  0.7146119273897611  0.6026232548321462  1.0000
  H   H120      1.0  0.32477528006512557  0.7853842003868934  0.8973766954197233  1.0000
  H   H121      1.0  0.8784998564099669  0.28296607576502447  0.39857526349803163  1.0000
  H   H122      1.0  0.3785034928978562  0.21703467842623075  0.10142576896718235  1.0000
  H   H123      1.0  0.12149643879367032  0.7170356823590042  0.6014263877587356  1.0000
  H   H124      1.0  0.6214978219811513  0.7829706337723651  0.8985769213374728  1.0000
  H   H125      1.0  0.871457743738809  0.18935725153390598  0.3347790817932649  1.0000
  H   H126      1.0  0.3714618545652257  0.31064147255906965  0.1652233512976552  1.0000
  H   H127      1.0  0.12853711727299813  0.810643996851461  0.6652221887887678  1.0000
  H   H128      1.0  0.6285408944905129  0.6893572863292622  0.8347828437456928  1.0000
  H   H129      1.0  0.28551909628352234  0.0725639879774462  0.792005852874283  1.0000
  H   H130      1.0  0.7855167051452056  0.42744067019048515  0.707993209604368  1.0000
  H   H131      1.0  0.7144836527698927  0.9274351961070124  0.20799096879791534  1.0000
  H   H132      1.0  0.21449106359569475  0.5725661853167382  0.2920122483992104  1.0000
  H   H133      1.0  0.27165831176076694  0.981521168909325  0.8390436168433981  1.0000
  H   H134      1.0  0.7716604655561029  0.5184854627060745  0.6609555271307317  1.0000
  H   H135      1.0  0.7283401347190336  0.018477488524943905  0.16095087334435482  1.0000
  H   H136      1.0  0.22834371771239154  0.4815229220078764  0.339051072895444  1.0000
  H   H137      1.0  0.5404822902203891  0.0439510432145838  0.900275584058932  1.0000
  H   H138      1.0  0.04048343633257191  0.4560555805967114  0.5997243058178088  1.0000
  H   H139      1.0  0.45951257079247654  0.9560507092717009  0.09972541692783929  1.0000
  H   H140      1.0  0.9595085563043925  0.5439491683114356  0.4002718262482788  1.0000
  H   H141      1.0  0.5576655113745519  0.13187386007788154  0.8514468015193943  1.0000
  H   H142      1.0  0.057665571550472805  0.3681327927533005  0.6485517948702085  1.0000
  H   H143      1.0  0.4423300667306052  0.8681268644812052  0.14855246271407918  1.0000
  H   H144      1.0  0.9423321578482416  0.6318719477074952  0.3514433617924981  1.0000
  H   H145      1.0  0.29290377696165143  0.4233336144691436  0.6397130037434524  1.0000
  H   H146      1.0  0.7929163775502773  0.07667416736118329  0.8602938731083329  1.0000
  H   H147      1.0  0.7070903669423956  0.5766615903404144  0.36029215225127603  1.0000
  H   H148      1.0  0.20709282538255283  0.9233336794413989  0.13970909489589903  1.0000
  H   H149      1.0  0.21546821216793435  0.420417370786204  0.5661383780469154  1.0000
  H   H150      1.0  0.7154701215908902  0.07959223176495561  0.9338657629655391  1.0000
  H   H151      1.0  0.7845295172190491  0.5795808642691258  0.4338658106466868  1.0000
  H   H152      1.0  0.28452904200703  0.9204155868455645  0.06613395368810164  1.0000
  H   H153      1.0  0.12293018525836173  0.2161234902029534  0.5662673808467602  1.0000
  H   H154      1.0  0.6229473735280281  0.2838868838475364  0.9337339070540128  1.0000
  H   H155      1.0  0.877058938986231  0.7838757220458135  0.4337326921711765  1.0000
  H   H156      1.0  0.37706111230917827  0.7161209545001128  0.06626808554550931  1.0000
  H   H157      1.0  0.20059307001992016  0.21929014095734092  0.6403940360795775  1.0000
  H   H158      1.0  0.7006173624369582  0.2807168780541787  0.8596081954600481  1.0000
  H   H159      1.0  0.7993903174550071  0.7807055397602414  0.3596075989691487  1.0000
  H   H160      1.0  0.2993990114545539  0.7192935061695709  0.14039537537846777  1.0000
  H   H161      1.0  0.4992935255238678  0.6982467367626769  0.01196791261363472  1.0000
  H   H162      1.0  0.9992943408525365  0.8017477002712712  0.4880336129780361  1.0000
  H   H163      1.0  0.5007049209598621  0.3017529711438557  0.9880309154063911  1.0000
  H   H164      1.0  0.0007076910919395  0.1982449333184348  0.5119670385672637  1.0000
  H   H165      1.0  0.07831401854835462  0.9293788291725349  0.18317666891282872  1.0000
  H   H166      1.0  0.5783129359308319  0.5706221934820308  0.31682194050659274  1.0000
  H   H167      1.0  0.9216887305251548  0.0706289725340241  0.8168210969324294  1.0000
  H   H168      1.0  0.4216847934575157  0.42937751160562965  0.683176562378428  1.0000
  C   C1        1.0  0.5048640906962377  0.3345029635141615  0.8238028971979932  1.0000
  C   C2        1.0  0.0048725631904389  0.16549546889878997  0.6761964145628812  1.0000
  C   C3        1.0  0.49513220449648543  0.6654947054419511  0.1761944081238128  1.0000
  C   C4        1.0  0.995133054242885  0.834502729531415  0.32380354737924943  1.0000
  C   C5        1.0  0.5275480959210271  0.38620973073652465  0.8582154854472113  1.0000
  C   C6        1.0  0.027555589890340605  0.11378876332153001  0.6417848110282023  1.0000
  C   C7        1.0  0.47245035055749446  0.6137879382221031  0.1417818198750355  1.0000
  C   C8        1.0  0.9724485933522048  0.8862094294709455  0.3582145006439321  1.0000
  C   C9        1.0  0.4668776676519429  0.4428399075951931  0.8690712412936963  1.0000
  C   C10       1.0  0.9668864315345972  0.057160627676687205  0.6309290214400678  1.0000
  C   C11       1.0  0.5331193446477515  0.5571628277332011  0.13092629428931707  1.0000
  C   C12       1.0  0.033119185900965  0.9428385817733869  0.3690707264463954  1.0000
  C   C13       1.0  0.3839541959707021  0.44274345674556054  0.842879034070329  1.0000
  C   C14       1.0  0.8839622616654595  0.057254847946765594  0.6571199970661328  1.0000
  C   C15       1.0  0.6160442505133688  0.5572567383537219  0.15711757354531394  1.0000
  C   C16       1.0  0.11604263867366173  0.9427438545835192  0.3428796952805869  1.0000
  C   C17       1.0  0.3668197886917639  0.3900701894274619  0.8082069107916044  1.0000
  C   C18       1.0  0.8668288375291484  0.10992858482418201  0.6917924939870448  1.0000
  C   C19       1.0  0.6331765065085123  0.6099310110531063  0.19178883249821876  1.0000
  C   C20       1.0  0.13317821409315667  0.8900690982346761  0.30820643701123646  1.0000
  C   C21       1.0  0.4892468770065292  0.49815015306010935  0.9054322808697113  1.0000
  C   C22       1.0  0.9892567957415324  0.001847894436323801  0.5945670630776052  1.0000
  C   C23       1.0  0.5107487010959987  0.5018500307636913  0.09456302620593256  1.0000
  C   C24       1.0  0.010750972975216702  0.9981492901585087  0.40543278778578457  1.0000
  C   C25       1.0  0.5524021638150672  0.48844709866481406  0.9394640509947509  1.0000
  C   C26       1.0  0.05241056573946419  0.011547403959575304  0.5605364616346622  1.0000
  C   C27       1.0  0.44759556556606844  0.5115495620911406  0.06053379351786964  1.0000
  C   C28       1.0  0.9475957687807225  0.9884472432208186  0.4394627863956233  1.0000
  C   C29       1.0  0.5739230404044025  0.540038982195334  0.9742947715558545  1.0000
  C   C30       1.0  0.07392702061813591  0.9599565629952592  0.525705726009676  1.0000
  C   C31       1.0  0.4260739718868082  0.4599597203257063  0.025704920789252107  1.0000
  C   C32       1.0  0.9260742942367488  0.0400385995522825  0.4742945529637269  1.0000
  C   C33       1.0  0.5330258129298927  0.6049552712723243  0.9765331801528847  1.0000
  C   C34       1.0  0.033028776719199  0.8950401808344  0.5234676257618676  1.0000
  C   C35       1.0  0.4669704822655661  0.3950434199757638  0.02346521165266321  1.0000
  C   C36       1.0  0.966974689418052  0.1049534637768517  0.4765328117280563  1.0000
  C   C37       1.0  0.4692179708107176  0.6152475197104652  0.9425838293165899  1.0000
  C   C38       1.0  0.9692217315500642  0.8847494480614843  0.5574155854897287  1.0000
  C   C39       1.0  0.5307783243887415  0.38475318230523925  0.05741283383820674  1.0000
  C   C40       1.0  0.030781734586945202  0.11524419091370672  0.44258420173049035  1.0000
  C   C41       1.0  0.448084324514511  0.5630881041926017  0.9081833646124697  1.0000
  C   C42       1.0  0.9480890658528696  0.9369113542545905  0.5918169694878446  1.0000
  C   C43       1.0  0.5519148390653116  0.4369121021796333  0.09181454354273202  1.0000
  C   C44       1.0  0.05191511739265311  0.06308786646592073  0.4081840789377369  1.0000
  C   C45       1.0  0.6215230757685575  0.6698952862943769  0.041159759172487  1.0000
  C   C46       1.0  0.12152533161417271  0.8300957162150909  0.4588397079991682  1.0000
  C   C47       1.0  0.378471068134985  0.33010038598173  0.9588409004738953  1.0000
  C   C48       1.0  0.8784795687055791  0.16989438560126768  0.5411609909836133  1.0000
  C   C49       1.0  0.7106335565913255  0.6361590596065698  0.035551270468964426  1.0000
  C   C50       1.0  0.2106359711311114  0.8638326587789397  0.4644482888158665  1.0000
  C   C51       1.0  0.2893591531254672  0.36383813906075363  0.9644502060656  1.0000
  C   C52       1.0  0.7893667779076879  0.13615947352871421  0.5355529574596931  1.0000
  C   C53       1.0  0.7829297149010302  0.6522809662503378  0.06656530844745134  1.0000
  C   C54       1.0  0.2829277310538744  0.8477114285776326  0.43343433604854215  1.0000
  C   C55       1.0  0.21706586319727714  0.3477167224311231  0.9334342728181826  1.0000
  C   C56       1.0  0.7170771692745107  0.15228223012544362  0.5665677271159382  1.0000
  C   C57       1.0  0.7710432722528255  0.7025017862113999  0.10424785134908636  1.0000
  C   C58       1.0  0.27104533405932335  0.7974916002225074  0.39575254961808093  1.0000
  C   C59       1.0  0.22895374003625343  0.2974959081078056  0.8957523801865437  1.0000
  C   C60       1.0  0.7289602833624472  0.20250105591562573  0.604250703006777  1.0000
  C   C61       1.0  0.6825853499022684  0.7371352130379449  0.10907273723210414  1.0000
  C   C62       1.0  0.18258940072919932  0.7628534234272664  0.39092940351738303  1.0000
  C   C63       1.0  0.3174102281931041  0.2628609689768168  0.8909283030890125  1.0000
  C   C64       1.0  0.8174198021589876  0.2371346873527145  0.609075300061001  1.0000
  C   C65       1.0  0.6097305755668717  0.7214694868418549  0.07845396988283686  1.0000
  C   C66       1.0  0.10973113436564572  0.7785200010726642  0.4215492274479333  1.0000
  C   C67       1.0  0.39026141705323164  0.27852719926962527  0.9215468008422791  1.0000
  C   C68       1.0  0.8902730488546239  0.221467605600516  0.5784557457246822  1.0000
  C   C69       1.0  0.8475875023852668  0.7181123989545385  0.13709668346348286  1.0000
  C   C70       1.0  0.3475880352371519  0.7818816738865808  0.3629038044589593  1.0000
  C   C71       1.0  0.15241022700048032  0.281886286659173  0.8629010580726518  1.0000
  C   C72       1.0  0.6524168650933503  0.21811299301833037  0.6370977195149978  1.0000
  C   C73       1.0  0.9439887261082305  0.7004506058835674  0.12717543621534594  1.0000
  C   C74       1.0  0.4439900640611398  0.7995436873755468  0.37282444100344503  1.0000
  C   C75       1.0  0.056010437475706006  0.2995516140743105  0.8728210684239602  1.0000
  C   C76       1.0  0.5560141191769291  0.20045248337719812  0.6271752987800242  1.0000
  C   C77       1.0  0.013954935353041303  0.7148970310075597  0.15935515399782227  1.0000
  C   C78       1.0  0.5139555703815404  0.7850998191969156  0.3406468863085907  1.0000
  C   C79       1.0  0.986049247905335  0.2851082417419946  0.8406429844194823  1.0000
  C   C80       1.0  0.48604502738835015  0.21489989716621957  0.6593529171164294  1.0000
  C   C81       1.0  0.9024138673752164  0.7632007108965768  0.2109079552790193  1.0000
  C   C82       1.0  0.40242274651409105  0.7367939805285175  0.2890906598779638  1.0000
  C   C83       1.0  0.09758457910815821  0.23679898855586862  0.789089897336446  1.0000
  C   C84       1.0  0.5975785683474016  0.26320421226058954  0.7109086517935809  1.0000
  C   C85       1.0  0.8287143637653146  0.7514178741281442  0.1804099222358816  1.0000
  C   C86       1.0  0.32871614750403216  0.7485771654783164  0.31959034388506075  1.0000
  C   C87       1.0  0.17128479980895864  0.24857980610343602  0.8195886836259236  1.0000
  C   C88       1.0  0.6712844502573747  0.2514185180774717  0.6804116163020526  1.0000
  C   C89       1.0  0.6499652102068936  0.8290718244672844  0.9969332342107439  1.0000
  C   C90       1.0  0.14997000006314923  0.6709340289618738  0.5030674299521751  1.0000
  C   C91       1.0  0.35003108501008035  0.17093599695790127  0.003066807577162904  1.0000
  C   C92       1.0  0.8500284464183425  0.32906466792478994  0.4969316121235183  1.0000
  C   C93       1.0  0.7287586052955392  0.8410044913434691  0.024510390718447243  1.0000
  C   C94       1.0  0.22876439066414636  0.6590014520061802  0.47548943057529425  1.0000
  C   C95       1.0  0.2712405583009528  0.1590028147120535  0.9754886201258945  1.0000
  C   C96       1.0  0.7712383583853822  0.34099572412868895  0.5245094448825045  1.0000
  C   C97       1.0  0.7646135253747988  0.907419685216347  0.03735553930634692  1.0000
  C   C98       1.0  0.26461612866642537  0.5925807830062197  0.46264563657626223  1.0000
  C   C99       1.0  0.2353877894964853  0.09258305011709211  0.9626419962775545  1.0000
  C   C100      1.0  0.7353844690956778  0.4074153961963987  0.5373550786110288  1.0000
  C   C101      1.0  0.718626315399  0.9580405606139235  0.018244164528972803  1.0000
  C   C102      1.0  0.21863228547275781  0.5419643676828585  0.4817581426058555  1.0000
  C   C103      1.0  0.28137141400362964  0.0419657090577914  0.9817521341570628  1.0000
  C   C104      1.0  0.7813668781046061  0.4580343432947842  0.5182425251442526  1.0000
  C   C105      1.0  0.6401097103480141  0.9422692678508969  0.9908619818994426  1.0000
  C   C106      1.0  0.14011255109635815  0.5577370947468268  0.5091416599713485  1.0000
  C   C107      1.0  0.3598901703393765  0.057736018983760615  0.009137782191238805  1.0000
  C   C108      1.0  0.8598880466724739  0.4422621175153909  0.49085841304893324  1.0000
  C   C109      1.0  0.8408580102488584  0.9232361051870445  0.07046047023445826  1.0000
  C   C110      1.0  0.34085693217087965  0.5767635026182347  0.42953769964751143  1.0000
  C   C111      1.0  0.15914545590667467  0.07676611477587873  0.9295360344057289  1.0000
  C   C112      1.0  0.6591422314026971  0.42323368196651506  0.5704621512141161  1.0000
  C   C113      1.0  0.8912266700647822  0.8720216673744049  0.08711511824957804  1.0000
  C   C114      1.0  0.3912258151448498  0.6279770531577782  0.41288393663058554  1.0000
  C   C115      1.0  0.10877321062163504  0.1279835969160246  0.9128820447622774  1.0000
  C   C116      1.0  0.6087711971429287  0.37202013142444923  0.5871159142305944  1.0000
  C   C117      1.0  0.9550568008575483  0.8871987087524574  0.12194530980989535  1.0000
  C   C118      1.0  0.45505441757399734  0.6128006599193156  0.37805285140274253  1.0000
  C   C119      1.0  0.044942362735724814  0.11280756373897562  0.8780513140112876  1.0000
  C   C120      1.0  0.5449418776233657  0.3871985551558907  0.621947546751507  1.0000
  C   C121      1.0  0.9712174224406668  0.9550306288033212  0.14218085432165856  1.0000
  C   C122      1.0  0.47121327957759024  0.5449707998014759  0.35781688541208484  1.0000
  C   C123      1.0  0.028783892434375995  0.044974111661673505  0.8578143023417868  1.0000
  C   C124      1.0  0.5287830156197729  0.45502841527373045  0.6421835127421716  1.0000
  C   C125      1.0  0.9262870714627809  0.0066802750182617015  0.12384919548568263  1.0000
  C   C126      1.0  0.4262821295802156  0.4933180228090279  0.37614767727485104  1.0000
  C   C127      1.0  0.07372069726422131  0.9933219421316795  0.8761469840205367  1.0000
  C   C128      1.0  0.5737199023726306  0.506678640769998  0.6238504923735064  1.0000
  C   C129      1.0  0.8624506274846057  0.9908913867471159  0.08907169634331787  1.0000
  C   C130      1.0  0.3624456404982866  0.5091108034632369  0.4109264349632016  1.0000
  C   C131      1.0  0.13755283868331966  0.009116395234087804  0.9109237935581194  1.0000
  C   C132      1.0  0.6375535230789493  0.49088790469637905  0.5890739076520506  1.0000
  C   C133      1.0  0.02825726348008571  0.021540696528290902  0.21319754293921994  1.0000
  C   C134      1.0  0.5282587474101208  0.47845922509765176  0.2868020452362928  1.0000
  C   C135      1.0  0.9717390317313176  0.9784650774949173  0.7868000007463467  1.0000
  C   C136      1.0  0.47174113326275363  0.5215394915168972  0.7131992727836621  1.0000
  C   C137      1.0  0.10840273453073482  0.0328058080373168  0.24169119560986735  1.0000
  C   C138      1.0  0.6084048637955136  0.46719482816919833  0.2583107569434021  1.0000
  C   C139      1.0  0.8915928435843413  0.9671994618841212  0.7583066176708189  1.0000
  C   C140      1.0  0.391597168161269  0.5328028858820916  0.7416917505372286  1.0000
  C   C141      1.0  0.10743406920551021  0.08404925225952549  0.27815984104945823  1.0000
  C   C142      1.0  0.6074409573766887  0.41594885554047795  0.2218428088138112  1.0000
  C   C143      1.0  0.8925572063309987  0.9159529789612224  0.7218379641276375  1.0000
  C   C144      1.0  0.39256681133750954  0.5840463521030798  0.7781626723185655  1.0000
  C   C145      1.0  0.026935924201573903  0.12647613842960231  0.28875582033004593  1.0000
  C   C146      1.0  0.5269461957731709  0.3735202373116309  0.21124402879752324  1.0000
  C   C147      1.0  0.9730546342333997  0.8735235497414848  0.7112407317443898  1.0000
  C   C148      1.0  0.47305727036435036  0.6264729341970111  0.7887602547710488  1.0000
  C   C149      1.0  0.9468794735153384  0.11404640654679808  0.26055756863253526  1.0000
  C   C150      1.0  0.4468803966409993  0.385956028742811  0.23944365851590285  1.0000
  C   C151      1.0  0.05311251912520021  0.8859593843795326  0.7394419258612646  1.0000
  C   C152      1.0  0.5531209182269167  0.6140442311744821  0.7605604272019522  1.0000
  C   C153      1.0  0.9469962307721504  0.0633574910841332  0.22361923797299715  1.0000
  C   C154      1.0  0.4469981295287511  0.4366423845234166  0.2763787853119269  1.0000
  C   C155      1.0  0.05299647895746771  0.9366462383509033  0.7763761327443535  1.0000
  C   C156      1.0  0.5530010340490962  0.5633563377263472  0.7236231829775905  1.0000
  C   C157      1.0  0.0267503350626583  0.1809670845578566  0.32723688519746486  1.0000
  C   C158      1.0  0.5267538757117125  0.3190308255872765  0.17276475614558257  1.0000
  C   C159      1.0  0.9732438088520896  0.8190336428175796  0.6727627041705662  1.0000
  C   C160      1.0  0.47324959043326237  0.6809653958891319  0.8272408360650946  1.0000
  C   C161      1.0  0.11246910622958951  0.2091811745197418  0.3467935489250992  1.0000
  C   C162      1.0  0.6124725036761802  0.2908159171548946  0.15320736625053405  1.0000
  C   C163      1.0  0.8875257547713318  0.7908155059590458  0.6532065715309018  1.0000
  C   C164      1.0  0.38752881118333704  0.7091807915117414  0.8467960055553265  1.0000
  C   C165      1.0  0.10997087854942582  0.2612969257081303  0.3828205044978717  1.0000
  C   C166      1.0  0.6099732944623497  0.238702697519976  0.11718101248502684  1.0000
  C   C167      1.0  0.8900275679279446  0.7386997575928903  0.6171799410937171  1.0000
  C   C168      1.0  0.39002658621679853  0.7612985621433879  0.8828215586374528  1.0000
  C   C169      1.0  0.9442287521279057  0.26082156229004744  0.3830793448398497  1.0000
  C   C170      1.0  0.4442289156322375  0.2391773098962275  0.11692051703879973  1.0000
  C   C171      1.0  0.055768977262232504  0.7391786638067047  0.6169208392590309  1.0000
  C   C172      1.0  0.5557673795666745  0.7608224205520031  0.8830809120596117  1.0000
  C   C173      1.0  0.9410726838857216  0.20881302893855047  0.3470362009028492  1.0000
  C   C174      1.0  0.4410802823099615  0.29118686941981053  0.15296604670513156  1.0000
  C   C175      1.0  0.0589178745543748  0.7911882166237448  0.6529647445434466  1.0000
  C   C176      1.0  0.5589231838408041  0.7088118838333061  0.8470394980686539  1.0000
  C   C177      1.0  0.43575720903807286  0.1603265769144713  0.7910502617142542  1.0000
  C   C178      1.0  0.935751547648863  0.3396763945980085  0.7089473397280843  1.0000
  C   C179      1.0  0.5642505596814972  0.8396721115290403  0.20894780495879675  1.0000
  C   C180      1.0  0.06425980655766492  0.6603268561202286  0.2910512268020258  1.0000
  C   C181      1.0  0.42306666119230135  0.10680020953081032  0.8188689154376834  1.0000
  C   C182      1.0  0.9230612256989661  0.3932047627174313  0.681129228089347  1.0000
  C   C183      1.0  0.5769360878602966  0.8931984760887841  0.18112882609948144  1.0000
  C   C184      1.0  0.07694295756061112  0.6068005382124113  0.318872161676481  1.0000
  C   C185      1.0  0.3413944338090148  0.06528460764209143  0.8155052983353318  1.0000
  C   C186      1.0  0.8413927765787649  0.4347181679642276  0.6844951905922515  1.0000
  C   C187      1.0  0.6586090323374235  0.9347135654233442  0.18449173739268335  1.0000
  C   C188      1.0  0.15861499216238434  0.5652886931790561  0.3155109176810314  1.0000
  C   C189      1.0  0.3334273999822557  0.015298471440381402  0.8415972130699461  1.0000
  C   C190      1.0  0.8334245194413797  0.48470833237993827  0.658402741499657  1.0000
  C   C191      1.0  0.6665739148746043  0.9846981752296314  0.15839900576914806  1.0000
  C   C192      1.0  0.16657751254674483  0.5153025756541113  0.3416028356846256  1.0000
  C   C193      1.0  0.4054538753173276  0.007453588261071802  0.8720694604211804  1.0000
  C   C194      1.0  0.9054538776454777  0.4925508555002338  0.6279308962825427  1.0000
  C   C195      1.0  0.5945452882534001  0.992542571213676  0.12792897882184925  1.0000
  C   C196      1.0  0.09454313466312671  0.5074549636122613  0.3720718495608183  1.0000
  C   C197      1.0  0.4856617975562474  0.050331849002411416  0.8761738828173267  1.0000
  C   C198      1.0  0.9856572977515727  0.44967330384382376  0.6238281880190116  1.0000
  C   C199      1.0  0.5143359318316457  0.9496673660744718  0.12382651533722112  1.0000
  C   C200      1.0  0.014334694886720503  0.5503314760626382  0.3761715205304555  1.0000
  C   C201      1.0  0.49497266486237373  0.09908931094797421  0.8494325015021577  1.0000
  C   C202      1.0  0.9949722628542403  0.4009173534948332  0.6505661632918704  1.0000
  C   C203      1.0  0.5050236303366235  0.900910901056953  0.15056605692216618  1.0000
  C   C204      1.0  0.0050261836442544  0.5990889302678681  0.349431761068587  1.0000
  C   C205      1.0  0.39876268501541295  0.9524809362873442  0.8993754621930281  1.0000
  C   C206      1.0  0.8987627781724257  0.5475229744057019  0.6006260017893157  1.0000
  C   C207      1.0  0.6012314588877316  0.04751520627333861  0.10062102623984973  1.0000
  C   C208      1.0  0.10122921447108271  0.4524838444486576  0.39937522945793813  1.0000
  C   C209      1.0  0.299937548882447  0.3219297498368406  0.6879911673141026  1.0000
  C   C210      1.0  0.7999548831109138  0.17808106464408982  0.8120131194494038  1.0000
  C   C211      1.0  0.7000537266329375  0.6780628809222193  0.3120091590941387  1.0000
  C   C212      1.0  0.20005575402544912  0.8219323582685832  0.18799045949063511  1.0000
  C   C213      1.0  0.2511958495271501  0.32115893075032187  0.644464142674565  1.0000
  C   C214      1.0  0.7512225402205105  0.17885024587135231  0.8555396323322031  1.0000
  C   C215      1.0  0.748783952471456  0.6788367499630539  0.3555374923734292  1.0000
  C   C216      1.0  0.24879455076862916  0.821161152191131  0.14446404958564335  1.0000
  C   C217      1.0  0.2559029855642621  0.3778946598268149  0.6234907144203563  1.0000
  C   C218      1.0  0.7559222598647394  0.12211353089428911  0.8765149022467684  1.0000
  C   C219      1.0  0.7440832702925776  0.622101040620322  0.3765131965729297  1.0000
  C   C220      1.0  0.24408981145020905  0.8778948200125716  0.1234877961627917  1.0000
  C   C221      1.0  0.21285071952938492  0.3765016868755282  0.582563646730428  1.0000
  C   C222      1.0  0.7128621410335682  0.12350691261925566  0.9174423329396152  1.0000
  C   C223      1.0  0.7871419901853189  0.6234940248512972  0.4174415648035963  1.0000
  C   C224      1.0  0.28714491060849673  0.8764989008689595  0.08255976263609455  1.0000
  C   C225      1.0  0.16408379838810563  0.3183855484594247  0.5618977407808218  1.0000
  C   C226      1.0  0.6640976523189438  0.18162646257211182  0.9381060065726675  1.0000
  C   C227      1.0  0.8359081942335466  0.6816116530250868  0.4381040608884492  1.0000
  C   C228      1.0  0.3359093993349447  0.8183844201055736  0.06189664439897063  1.0000
  C   C229      1.0  0.1602515178749826  0.2613785078905053  0.5826533690718066  1.0000
  C   C230      1.0  0.6602706383043185  0.23863146084896414  0.9173495042818021  1.0000
  C   C231      1.0  0.839736172173531  0.7386181782159299  0.41734740165242823  1.0000
  C   C232      1.0  0.3397435842969116  0.7613769013325252  0.08265449466760802  1.0000
  C   C233      1.0  0.20326290958774254  0.26281905790615673  0.6235772039688074  1.0000
  C   C234      1.0  0.7032819945424509  0.23718698170220168  0.8764281689348794  1.0000
  C   C235      1.0  0.7967233462752502  0.7371791827717757  0.3764276349921475  1.0000
  C   C236      1.0  0.29673366224163544  0.7628178461384821  0.12357706691194895  1.0000
  C   C237      1.0  0.1134597249693101  0.31796989992916747  0.5189150589838152  1.0000
  C   C238      1.0  0.6134657230643371  0.18203995625390232  0.9810874700275254  1.0000
  C   C239      1.0  0.8865380044084292  0.6820247641493041  0.48108613985382237  1.0000
  C   C240      1.0  0.38653846019573024  0.8179653559480543  0.018915220277712332  1.0000
  N   N1        1.0  0.42596424492837315  0.336185006805735  0.7984733900108058  1.0000
  N   N2        1.0  0.9259706794060991  0.16381492842381115  0.7015271255256652  1.0000
  N   N3        1.0  0.5740349186549879  0.6638167203233395  0.2015246847631716  1.0000
  N   N4        1.0  0.07403422093350541  0.8361837853785873  0.29847386736047116  1.0000
  N   N5        1.0  0.5468884802519938  0.6581749936951057  0.011158416348827426  1.0000
  N   N6        1.0  0.0468886597316498  0.8418183768486359  0.48884227329269  1.0000
  N   N7        1.0  0.45310781494028163  0.34182218525023  0.9888407842425058  1.0000
  N   N8        1.0  0.9531140893060908  0.15817325135809313  0.5111592425781313  1.0000
  N   N9        1.0  0.9941360442783208  0.7454475598440811  0.20096435481973182  1.0000
  N   N10       1.0  0.49413497252602673  0.7545478676595536  0.29903597919454233  1.0000
  N   N11       1.0  0.0058659876891696  0.2545556767730801  0.7990325860342015  1.0000
  N   N12       1.0  0.5058656252485891  0.2454538763793721  0.7009640463888476  1.0000
  N   N13       1.0  0.6043745527184612  0.8787506777353118  0.9805625011510349  1.0000
  N   N14       1.0  0.10437912625678082  0.6212545675042875  0.5194387390302071  1.0000
  N   N15       1.0  0.39562174249390847  0.12125511883211712  0.01943764361335811  1.0000
  N   N16       1.0  0.8956214715083776  0.37874312118306364  0.4805608422364502  1.0000
  N   N17       1.0  0.032249340019411904  0.9681190861312958  0.17819415630954447  1.0000
  N   N18       1.0  0.5322466490371768  0.5318823495125146  0.321806115417104  1.0000
  N   N19       1.0  0.9677505406719789  0.031888211470978006  0.8218038791303858  1.0000
  N   N20       1.0  0.4677496461636111  0.46811838350149776  0.6781941242210723  1.0000
  N   N21       1.0  0.027051784836956506  0.2872414402198303  0.40108807564431714  1.0000
  N   N22       1.0  0.5270547859639337  0.21275848421718987  0.09891216230645485  1.0000
  N   N23       1.0  0.9729430761734295  0.7127592956105318  0.5989124891284237  1.0000
  N   N24       1.0  0.4729465289076203  0.7872437780136394  0.901089219356088  1.0000
  O   O1        1.0  0.3512573088311512  0.37184363069295767  0.7043334425977081  1.0000
  O   O2        1.0  0.851274402590292  0.1281652482723246  0.7956673917219776  1.0000
  O   O3        1.0  0.6487504598689001  0.6281469329572574  0.29566210976760493  1.0000
  O   O4        1.0  0.14873838581907964  0.8718430829091799  0.2043330307437544  1.0000
  O   O5        1.0  0.2895036973779241  0.26882754288765653  0.7060829257940003  1.0000
  O   O6        1.0  0.7895148085434444  0.23117916922363693  0.7939183112903054  1.0000
  O   O7        1.0  0.7104861439540288  0.7311681293834129  0.2939177338514939  1.0000
  O   O8        1.0  0.2104936772971797  0.7688301870628251  0.20608352279314354  1.0000
  O   O9        1.0  0.12063868299865282  0.37181746847535635  0.5014532708115171  1.0000
  O   O10       1.0  0.6206372754639062  0.12818883355625843  0.9985462712887954  1.0000
  O   O11       1.0  0.879359763482505  0.6281807412185644  0.49854799166855934  1.0000
  O   O12       1.0  0.37936403941449737  0.8718164645521899  0.00145479334159401  1.0000
  O   O13       1.0  0.0649273113836273  0.2669033890090518  0.5017568924225204  1.0000
  O   O14       1.0  0.5649400096642765  0.233107375669249  0.9982467031548057  1.0000
  O   O15       1.0  0.9350754376663916  0.7330937983979312  0.49824328357468795  1.0000
  O   O16       1.0  0.43506775907341927  0.766898446273885  0.0017563678256138223  1.0000
  O   O17       1.0  0.3592840533640357  0.17842933863692423  0.7715619949028893  1.0000
  O   O18       1.0  0.8592819081602416  0.32157293254719127  0.7284338939394815  1.0000
  O   O19       1.0  0.6407201298857005  0.8215723772259201  0.22843477933270873  1.0000
  O   O20       1.0  0.14072586055766584  0.6784252377052554  0.2715628166545657  1.0000
  O   O21       1.0  0.5163802899353557  0.18703800981008104  0.7882803789360654  1.0000
  O   O22       1.0  0.016378707440473803  0.3129670169977317  0.7117170584851993  1.0000
  O   O23       1.0  0.4836238933044613  0.8129591606904115  0.21171784625231996  1.0000
  O   O24       1.0  0.9836297783955175  0.6870407931696363  0.28828168276579913  1.0000
  O   O25       1.0  0.32927032365776654  0.9123064422514915  0.8956666703646694  1.0000
  O   O26       1.0  0.8292670182246411  0.5876988234223931  0.6043346065791939  1.0000
  O   O27       1.0  0.6707338595761457  0.0876881936542659  0.10433127712575901  1.0000
  O   O28       1.0  0.17072282312692266  0.4123054551986555  0.39566569669995044  1.0000
  O   O29       1.0  0.4708866965821771  0.9501436746144306  0.9260042721013095  1.0000
  O   O30       1.0  0.9708874987818136  0.5498624413343267  0.5739984190459142  1.0000
  O   O31       1.0  0.5291139011892626  0.0498565571217426  0.0739965622678653  1.0000
  O   O32       1.0  0.0291044938587532  0.45014287085334104  0.42600427125682244  1.0000
