data_image0
_chemical_formula_structural       C46H36N16O2Zn4
_chemical_formula_sum              "C46 H36 N16 O2 Zn4"
_cell_length_a       12.842013526180875
_cell_length_b       12.83426083384196
_cell_length_c       14.8793090576495
_cell_angle_alpha    122.12668525924671
_cell_angle_beta     92.02773868322505
_cell_angle_gamma    110.08666189141798

_space_group_name_H-M_alt    "P 1"
_space_group_IT_number       1

loop_
  _space_group_symop_operation_xyz
  'x, y, z'

loop_
  _atom_site_type_symbol
  _atom_site_label
  _atom_site_symmetry_multiplicity
  _atom_site_fract_x
  _atom_site_fract_y
  _atom_site_fract_z
  _atom_site_occupancy
  C   C1        1.0  0.5151217797826391  0.30074273137876867  0.10363738863682678  1.0000
  C   C2        1.0  0.6120931318428262  0.02371501071100821  0.1514571105401927  1.0000
  C   C3        1.0  0.8718477441200888  0.4602404953304743  0.8485884976284271  1.0000
  C   C4        1.0  0.34163335800269573  0.5197551752444269  0.3351566705318235  1.0000
  C   C5        1.0  0.18419176426192507  0.00592146921960111  0.6648532870007531  1.0000
  C   C6        1.0  0.4353032881708641  0.6298249762242706  0.532174543948017  1.0000
  C   C7        1.0  0.0974576249720727  0.9020772787390927  0.46770726246720806  1.0000
  C   C8        1.0  0.19707146366368286  0.41161595045261384  0.8963471565323644  1.0000
  C   C9        1.0  0.34663414519932445  0.524572341454828  0.43534289352572864  1.0000
  C   C10       1.0  0.08883422509332217  0.9105265848504802  0.5645777297311201  1.0000
  C   C11       1.0  0.2704195134114541  0.4205776742094258  0.44221240642345816  1.0000
  C   C12       1.0  0.9777302021604584  0.8278873501270212  0.5576859914892441  1.0000
  C   C13       1.0  0.28719715714461097  0.4184866836709773  0.5346628658342071  1.0000
  C   C14       1.0  0.8832348533820633  0.7524765037550978  0.4652050427488563  1.0000
  C   C15       1.0  0.3825589903724733  0.5204318801844822  0.6289688864436231  1.0000
  C   C16       1.0  0.8911455122997722  0.7533649603314886  0.37090259868930553  1.0000
  C   C17       1.0  0.45218926113180646  0.626957394777449  0.6235471060181939  1.0000
  C   C18       1.0  0.0032489449790845558  0.8278377488608941  0.3763245903526954  1.0000
  C   C19       1.0  0.569134380398431  0.7475568666200021  0.6791100743622355  1.0000
  C   C20       1.0  0.06845440606158351  0.889234484108876  0.32092605488068693  1.0000
  C   C21       1.0  0.7988688039227226  0.6738223542597765  0.17749017090376662  1.0000
  C   C22       1.0  0.4963656443284278  0.6216414664280876  0.8223923855614148  1.0000
  C   C23       1.0  0.54667947665034  0.7567556957066021  0.5785004885150332  1.0000
  C   C24       1.0  0.7936172173016375  0.6981545932615917  0.28105508951917124  1.0000
  C   C25       1.0  0.17825510418420273  0.9670733018803903  0.421510960129034  1.0000
  C   C26       1.0  0.08612347509897236  0.5423109326236857  0.8907031641978167  1.0000
  C   C27       1.0  0.651831033144404  0.19592650363506434  0.10936020315655541  1.0000
  C   C28       1.0  0.9774115649452426  0.44303024330598373  0.8483422908299122  1.0000
  C   C29       1.0  0.5951210067556189  0.12960004608863315  0.15179008426281376  1.0000
  C   C30       1.0  0.41688984658113526  0.5127031230725337  0.718881704290908  1.0000
  C   C31       1.0  0.7589548357825888  0.356753363566277  0.8047549897204437  1.0000
  C   C32       1.0  0.5524037034086572  0.954700667363461  0.19525445388017484  1.0000
  C   C33       1.0  0.3950577634110388  0.6290073124230703  0.3269439827810176  1.0000
  C   C34       1.0  0.3016092519594552  0.0677428884302885  0.6731364629339966  1.0000
  C   C35       1.0  0.8550223108686977  0.5800776887830209  0.9069372300527905  1.0000
  C   C36       1.0  0.6734443912707988  0.948392101105796  0.0931557891829089  1.0000
  C   C37       1.0  0.29622044456358765  0.40604713243891416  0.22435209417359672  1.0000
  C   C38       1.0  0.18134824609451533  0.07161461138199614  0.7756173973409589  1.0000
  C   C39       1.0  0.6791271848430113  0.6793559302987403  0.2819501923244519  1.0000
  C   C40       1.0  0.39699965446486374  0.39723098739147406  0.7180192285063642  1.0000
  C   C41       1.0  0.6389142004261643  0.2975206333464299  0.0034664668507106123  1.0000
  C   C42       1.0  0.29378161747202813  0.6358256135112869  0.9966837916310783  1.0000
  C   C43       1.0  0.6096895364033231  0.26857045596251083  0.08063066457043541  1.0000
  C   C44       1.0  0.1876620974403166  0.5291947289123797  0.9194826071101121  1.0000
  C   C45       1.0  0.692549260147686  0.9695788153673633  0.8299348329259719  1.0000
  C   C46       1.0  0.13933008900152544  0.8615978939239072  0.17003742941566477  1.0000
  H   H1        1.0  0.46537775664812403  0.29719424681483997  0.16026134136364342  1.0000
  H   H2        1.0  0.03861912013314844  0.9592468222873692  0.3181990745359188  1.0000
  H   H3        1.0  0.6417311942318094  0.7203458091402767  0.6820440377781412  1.0000
  H   H4        1.0  0.5359626053124062  0.8492200929361575  0.6036603900573855  1.0000
  H   H5        1.0  0.24529584264658424  0.9308325515361917  0.3962618844773192  1.0000
  H   H6        1.0  0.6098908360718626  0.7468987737943069  0.5299366742917757  1.0000
  H   H7        1.0  0.2173590077979384  0.078966996966571  0.47022545490179374  1.0000
  H   H8        1.0  0.13700215190372947  0.3051069026455054  0.8396020735917633  1.0000
  H   H9        1.0  0.0987251768119321  0.6440259322901696  0.9163712292757611  1.0000
  H   H10       1.0  0.7276835348698611  0.18272878174509088  0.0835149159970357  1.0000
  H   H11       1.0  0.9660652275235788  0.341215044453577  0.8214387967185816  1.0000
  H   H12       1.0  0.5203834873227394  0.14530383160391117  0.17881192041713243  1.0000
  H   H13       1.0  0.8708951930539898  0.6744936940373522  0.1412890804277612  1.0000
  H   H14       1.0  0.5334851422418012  0.7299515909523109  0.8585241618695394  1.0000
  H   H15       1.0  0.7303953080262033  0.2470390780397977  0.7539301370466804  1.0000
  H   H16       1.0  0.4935384029750479  0.9770220446538715  0.2459672754741719  1.0000
  H   H17       1.0  0.4405470151188311  0.7370847910810526  0.39228954607205696  1.0000
  H   H18       1.0  0.3443225264668041  0.04775175825417931  0.6078530904033955  1.0000
  H   H19       1.0  0.9184197948885  0.6856693398438127  0.9566038138077463  1.0000
  H   H20       1.0  0.7293724550616999  0.9621444733772576  0.04356356107624054  1.0000
  H   H21       1.0  0.2489656505252071  0.29898772463608486  0.19066118044333552  1.0000
  H   H22       1.0  0.10802659419749716  0.057965815179969044  0.8092121911761581  1.0000
  H   H23       1.0  0.6359799818202347  0.6882483564411501  0.3454631746614968  1.0000
  H   H24       1.0  0.22505453215291735  0.33359757209025526  0.5327172317060659  1.0000
  H   H25       1.0  0.3421708983394679  0.29051410311628006  0.6545246981323276  1.0000
  H   H26       1.0  0.7074503043793356  0.2889981606216668  0.9631576278458954  1.0000
  H   H27       1.0  0.3254574758078875  0.7447588774051896  0.037003092083907264  1.0000
  H   H28       1.0  0.1956424019597733  0.3374376914477892  0.3718993906148072  1.0000
  H   H29       1.0  0.9647116445589463  0.8236167465143256  0.6280131980614531  1.0000
  H   H30       1.0  0.8000858651803852  0.6926610069726705  0.46711302228913365  1.0000
  H   H31       1.0  0.7122967849558605  0.0038519612943445484  0.7757746435441747  1.0000
  H   H32       1.0  0.7599657370361897  0.9396831012570034  0.8427230634375538  1.0000
  H   H33       1.0  0.692849785144041  0.053486845929932116  0.9092569475882688  1.0000
  H   H34       1.0  0.22785268646221377  0.9353585976336449  0.22411029288474565  1.0000
  H   H35       1.0  0.0967629850511287  0.9164274959313234  0.15739431098690929  1.0000
  H   H36       1.0  0.14354834906696112  0.7823444277586304  0.0906296347887691  1.0000
  N   N1        1.0  0.48957258335711623  0.3414803932774859  0.04261945346754468  1.0000
  N   N2        1.0  0.5758524822269706  0.8478706722304138  0.1654818969248809  1.0000
  N   N3        1.0  0.6820574209718514  0.41016041500672185  0.8345762127210821  1.0000
  N   N4        1.0  0.3827961954009141  0.5839295533946683  0.2205305502270749  1.0000
  N   N5        1.0  0.36293653662982445  0.1623102088656056  0.779549579939321  1.0000
  N   N6        1.0  0.742295957113079  0.5497921134944975  0.8986854002281747  1.0000
  N   N7        1.0  0.6512949194458102  0.843855931609582  0.10142452925043012  1.0000
  N   N8        1.0  0.29894249712850035  0.447281694201351  0.9573033453493951  1.0000
  N   N9        1.0  0.32140584062653227  0.44457760011128755  0.1563836202092476  1.0000
  N   N10       1.0  0.2878118615493221  0.16511465143828027  0.8436249445664076  1.0000
  N   N11       1.0  0.6225568798107304  0.6491572072124612  0.187261444416457  1.0000
  N   N12       1.0  0.46165073256920397  0.43540389071421265  0.8126641250314395  1.0000
  N   N13       1.0  0.5649562517547935  0.3390053717524283  0.9805229544273362  1.0000
  N   N14       1.0  0.358427671077024  0.5849363500078439  0.01952123367752289  1.0000
  N   N15       1.0  0.6960929126776064  0.6452699661165793  0.12311508754873317  1.0000
  N   N16       1.0  0.5221750597372293  0.5731908055120629  0.8767409372516187  1.0000
  O   O1        1.0  0.5809925236715329  0.8605507916446983  0.7850312186539984  1.0000
  O   O2        1.0  0.07523894084104656  0.7950086307493508  0.21495438334528674  1.0000
  Zn  Zn1       1.0  0.34070108575186714  0.34088373127063687  8.849981000591823e-06  1.0000
  Zn  Zn2       1.0  0.6603651388915279  0.6604448510706931  0.9999656902104592  1.0000
  Zn  Zn3       1.0  0.5186449187729709  0.3289674817219891  0.8453552766394454  1.0000
  Zn  Zn4       1.0  0.4835873267079763  0.673879759522386  0.1548077894949176  1.0000
