data_image0
_chemical_formula_structural       Cd8H168C216N56Cl16
_chemical_formula_sum              "Cd8 H168 C216 N56 Cl16"
_cell_length_a       15.035427893014722
_cell_length_b       17.911733484019233
_cell_length_c       25.717660119030135
_cell_angle_alpha    89.99987089922178
_cell_angle_beta     89.9998811283423
_cell_angle_gamma    89.99989254351942

_space_group_name_H-M_alt    "P 1"
_space_group_IT_number       1

loop_
  _space_group_symop_operation_xyz
  'x, y, z'

loop_
  _atom_site_type_symbol
  _atom_site_label
  _atom_site_symmetry_multiplicity
  _atom_site_fract_x
  _atom_site_fract_y
  _atom_site_fract_z
  _atom_site_occupancy
  Cd  Cd1       1.0  0.42178162582309403  0.4562477714513447  0.1920681813818348  1.0000
  Cd  Cd2       1.0  0.5782172742359108  0.4562446693630092  0.307931270959756  1.0000
  Cd  Cd3       1.0  0.07821421206589459  0.043752511870032186  0.19207104663683341  1.0000
  Cd  Cd4       1.0  0.9217776278827047  0.043753893221072794  0.3079282754111574  1.0000
  Cd  Cd5       1.0  0.5782169551973979  0.5437535369693617  0.8079296446255031  1.0000
  Cd  Cd6       1.0  0.4217779813092406  0.5437527310068969  0.692066943890538  1.0000
  Cd  Cd7       1.0  0.9217823736633477  0.9562454467858001  0.8079310565908389  1.0000
  Cd  Cd8       1.0  0.07822028804503128  0.9562440654399961  0.692069939437083  1.0000
  H   H1        1.0  0.8081944478094343  0.9622581745309372  0.9192666772700026  1.0000
  H   H2        1.0  0.1918075353815212  0.9622569744245335  0.5807319762944729  1.0000
  H   H3        1.0  0.6918051513718666  0.537742682225577  0.9192674698764877  1.0000
  H   H4        1.0  0.3081944542205335  0.5377412987748825  0.5807330164494078  1.0000
  H   H5        1.0  0.19180612850207981  0.037738667540892785  0.08073192641536052  1.0000
  H   H6        1.0  0.8081943711207842  0.03773875105785149  0.41926779390455243  1.0000
  H   H7        1.0  0.30819409473960496  0.4622586261902055  0.08073307799549671  1.0000
  H   H8        1.0  0.6918054569893713  0.4622588930551217  0.4192667537473227  1.0000
  H   H9        1.0  0.34139447558442976  0.1577300930291941  0.20001592150605066  1.0000
  H   H10       1.0  0.6586057561145537  0.15772912318988824  0.2999843881727386  1.0000
  H   H11       1.0  0.15860266432243011  0.342268489705347  0.2000158876464724  1.0000
  H   H12       1.0  0.8413971553258648  0.34226946509078715  0.299984521249293  1.0000
  H   H13       1.0  0.6586034403379272  0.8422689822146123  0.7999846263684846  1.0000
  H   H14       1.0  0.3413961503833889  0.8422705103452869  0.7000153820232101  1.0000
  H   H15       1.0  0.8413965817909103  0.6577311438306735  0.7999846602268266  1.0000
  H   H16       1.0  0.15860608136355134  0.6577290518555755  0.7000160266224498  1.0000
  H   H17       1.0  0.5018134076585739  0.9543502785997187  0.17533332683008504  1.0000
  H   H18       1.0  0.4981863754914783  0.9543483650309735  0.32466728796363503  1.0000
  H   H19       1.0  0.9981855038542591  0.5456490767105462  0.17533373509547803  1.0000
  H   H20       1.0  0.0018145267692091002  0.5456496199474399  0.3246671322851641  1.0000
  H   H21       1.0  0.4981858384555268  0.045649913230810996  0.8246664433670433  1.0000
  H   H22       1.0  0.5018128706250521  0.045649035332644396  0.6753328710735431  1.0000
  H   H23       1.0  0.0018130771633480002  0.45435111511987686  0.8246664239399166  1.0000
  H   H24       1.0  0.9981873797274119  0.45435057188036126  0.6753330267482127  1.0000
  H   H25       1.0  0.41168125879172385  0.0665764013053547  0.18761202254604112  1.0000
  H   H26       1.0  0.5883198415401338  0.06657438547622258  0.3123868748406978  1.0000
  H   H27       1.0  0.08831725528672511  0.4334227798471202  0.18761231978868412  1.0000
  H   H28       1.0  0.9116810306377872  0.433424162685334  0.31238639069620433  1.0000
  H   H29       1.0  0.5883186524181098  0.9334232322307654  0.8123881364889913  1.0000
  H   H30       1.0  0.4116807347707621  0.9334230148888659  0.6876117288442317  1.0000
  H   H31       1.0  0.911680660635014  0.5665768536899447  0.8123882280854178  1.0000
  H   H32       1.0  0.08831954567067872  0.5665760291466666  0.6876118241486681  1.0000
  H   H33       1.0  0.566656316124252  0.29901052255906535  0.18005740408484883  1.0000
  H   H34       1.0  0.43334293502018545  0.29900872641898957  0.3199430727036798  1.0000
  H   H35       1.0  0.9333403695890254  0.20098901198031868  0.180057647273145  1.0000
  H   H36       1.0  0.06666043061257199  0.20099002664335325  0.319942594512014  1.0000
  H   H37       1.0  0.4333409347010574  0.7009896692717772  0.8199431437892174  1.0000
  H   H38       1.0  0.5666589714790007  0.700989790529675  0.68005669749315  1.0000
  H   H39       1.0  0.06666087181235268  0.7990100632608726  0.8199429005993724  1.0000
  H   H40       1.0  0.9333434711714048  0.7990096068889937  0.6800579533584569  1.0000
  H   H41       1.0  0.5636852664367921  0.6115779125423442  0.3960157654892883  1.0000
  H   H42       1.0  0.43631594717066247  0.6115784852214502  0.1039838319065041  1.0000
  H   H43       1.0  0.936313527687588  0.8884218454551128  0.3960145443939639  1.0000
  H   H44       1.0  0.0636837422884398  0.8884207719537327  0.1039853961947941  1.0000
  H   H45       1.0  0.43631331458212236  0.3884217209954526  0.6039840047086856  1.0000
  H   H46       1.0  0.5636852942334089  0.38842003172836553  0.8960155494528693  1.0000
  H   H47       1.0  0.0636863835244483  0.11157890467066517  0.6039836704508731  1.0000
  H   H48       1.0  0.9363155038234652  0.11157830328713905  0.8960163181925297  1.0000
  H   H49       1.0  0.6128387920357667  0.6108400696986891  0.23554740509801061  1.0000
  H   H50       1.0  0.38716242321905986  0.6108407589905838  0.264452193455682  1.0000
  H   H51       1.0  0.8871599059754728  0.8891590908232767  0.23554624251523396  1.0000
  H   H52       1.0  0.1128380274489942  0.8891590956595647  0.2644536969152185  1.0000
  H   H53       1.0  0.38715912388797596  0.389159005546375  0.7644523651008016  1.0000
  H   H54       1.0  0.6128394832808155  0.3891577579587134  0.7355471879032863  1.0000
  H   H55       1.0  0.11283867504565138  0.11084165930417098  0.7644515834925516  1.0000
  H   H56       1.0  0.8871612186622856  0.11084053787455868  0.7355480174716647  1.0000
  H   H57       1.0  0.6731752162045623  0.8399578578933669  0.31804730689719213  1.0000
  H   H58       1.0  0.32682615255693287  0.8399577925285439  0.18195348742471404  1.0000
  H   H59       1.0  0.8268265147579186  0.6600427106195778  0.3180469659785744  1.0000
  H   H60       1.0  0.17317193024967995  0.6600423290061029  0.18195411070911402  1.0000
  H   H61       1.0  0.3268253601003863  0.16004177564160219  0.6819532409752898  1.0000
  H   H62       1.0  0.6731730935571676  0.16004239930198588  0.8180462827724144  1.0000
  H   H63       1.0  0.1731753917374661  0.33995859779473375  0.6819531930539287  1.0000
  H   H64       1.0  0.8268259856721869  0.3399584211187303  0.8180456594883838  1.0000
  H   H65       1.0  0.619006190758931  0.812302034576639  0.12823460334206524  1.0000
  H   H66       1.0  0.3809939095639193  0.8123012698427343  0.37176584554710973  1.0000
  H   H67       1.0  0.8809948830408844  0.6876997062694981  0.1282341532605287  1.0000
  H   H68       1.0  0.11900549549942242  0.6877004708257245  0.3717664911815746  1.0000
  H   H69       1.0  0.38099372044973023  0.18769927383987545  0.871765166853784  1.0000
  H   H70       1.0  0.6190053365476872  0.18770115516081629  0.6282339246482707  1.0000
  H   H71       1.0  0.1190063583618794  0.3122993689729511  0.8717656169362656  1.0000
  H   H72       1.0  0.8809950808057253  0.3123008375908965  0.6282328901760081  1.0000
  H   H73       1.0  0.5953357369877496  0.7583733335414207  0.36480867072138784  1.0000
  H   H74       1.0  0.40466581394102974  0.7583738551235866  0.13519147396520742  1.0000
  H   H75       1.0  0.9046644979805479  0.7416270837024964  0.3648073295937095  1.0000
  H   H76       1.0  0.09533309976740162  0.7416264176837472  0.1351924525403803  1.0000
  H   H77       1.0  0.4046635091275305  0.24162518340870773  0.6351914883149166  1.0000
  H   H78       1.0  0.5953354274629705  0.2416241035323452  0.8648082962324609  1.0000
  H   H79       1.0  0.09533607832666749  0.2583742247160074  0.6351908852502888  1.0000
  H   H80       1.0  0.9046654812501417  0.25837321585279216  0.8648080953333164  1.0000
  H   H81       1.0  0.6997650662630619  0.9461899720689497  0.259656980872613  1.0000
  H   H82       1.0  0.30023540020168576  0.9461897597003596  0.2403436467263731  1.0000
  H   H83       1.0  0.800237536834601  0.5538096687483145  0.2596564501187117  1.0000
  H   H84       1.0  0.1997624755661676  0.5538107312361829  0.2403447932919392  1.0000
  H   H85       1.0  0.30023750532929944  0.05380966146444878  0.7403435669986681  1.0000
  H   H86       1.0  0.6997611855293329  0.05381154872003438  0.7596553457957713  1.0000
  H   H87       1.0  0.19976503475769652  0.44618940649119293  0.7403444865908642  1.0000
  H   H88       1.0  0.8002374356418045  0.44619057717970617  0.7596553657417717  1.0000
  H   H89       1.0  0.9059252725206405  0.8417831429604019  0.0659662995245611  1.0000
  H   H90       1.0  0.09407343178260422  0.8417831870625176  0.4340341030963587  1.0000
  H   H91       1.0  0.594074026779218  0.6582187993228596  0.0659662440183482  1.0000
  H   H92       1.0  0.4059237572084982  0.6582172355866969  0.4340336690195842  1.0000
  H   H93       1.0  0.0940746386878857  0.1582170488683445  0.934034248347885  1.0000
  H   H94       1.0  0.9059251492350741  0.15821756306178966  0.565965667100734  1.0000
  H   H95       1.0  0.4059245542372808  0.3417836256818416  0.9340331373395687  1.0000
  H   H96       1.0  0.5940741587108106  0.34178518941727276  0.5659664900144676  1.0000
  H   H97       1.0  0.8088656992748184  0.8513103691212361  0.14305734566395503  1.0000
  H   H98       1.0  0.19113431394892902  0.8513093931280049  0.35694265316682566  1.0000
  H   H99       1.0  0.6911339917731141  0.6486924403602071  0.1430575761213291  1.0000
  H   H100      1.0  0.30886514367585954  0.6486896040258042  0.3569439072191615  1.0000
  H   H101      1.0  0.1911348770276433  0.1486914975867535  0.8569432022067787  1.0000
  H   H102      1.0  0.8088655972617927  0.14869191529039935  0.6430559505154392  1.0000
  H   H103      1.0  0.30886458924130983  0.3513099846426114  0.8569429717501793  1.0000
  H   H104      1.0  0.6911354326284638  0.35131058780241625  0.643056640652887  1.0000
  H   H105      1.0  0.2926846706962322  0.30780548516481315  0.20901626331854573  1.0000
  H   H106      1.0  0.7073145608094437  0.30780446771033343  0.290984199666326  1.0000
  H   H107      1.0  0.20731177220026348  0.1921941850406198  0.20901640585960737  1.0000
  H   H108      1.0  0.7926883825423588  0.192195266272364  0.29098423856659394  1.0000
  H   H109      1.0  0.7073119150339623  0.6921947066671804  0.7909838957180639  1.0000
  H   H110      1.0  0.29268734568717747  0.692195724117475  0.709015959367058  1.0000
  H   H111      1.0  0.7926894692004253  0.8078048901999392  0.7909845308507784  1.0000
  H   H112      1.0  0.20731485414387413  0.8078054838463941  0.7090166981412624  1.0000
  H   H113      1.0  0.6495779153936568  0.20219180530818895  0.1762538177533131  1.0000
  H   H114      1.0  0.3504228821259049  0.20218956919427453  0.323746422146698  1.0000
  H   H115      1.0  0.850420779093085  0.2978082998274515  0.17625400965282986  1.0000
  H   H116      1.0  0.14957913982849652  0.2978086132706536  0.32374685785830354  1.0000
  H   H117      1.0  0.3504213307197547  0.7978083865217084  0.8237463412816766  1.0000
  H   H118      1.0  0.6495776941822983  0.7978083894621831  0.6762533480513754  1.0000
  H   H119      1.0  0.14957780192320771  0.702192450295598  0.823746538219993  1.0000
  H   H120      1.0  0.850423431761861  0.7021915785547391  0.6762544676882598  1.0000
  H   H121      1.0  0.5844025984564141  0.7073539998593146  0.18745432438477397  1.0000
  H   H122      1.0  0.41559840129608716  0.7073539304822487  0.3125459003737633  1.0000
  H   H123      1.0  0.9155969351721397  0.7926475494128266  0.18745444526463476  1.0000
  H   H124      1.0  0.08440187884332322  0.7926474434674727  0.31254642330894467  1.0000
  H   H125      1.0  0.4155959825618822  0.2926461919717339  0.8125454458127593  1.0000
  H   H126      1.0  0.58440217500506  0.2926484945183673  0.6874550363343986  1.0000
  H   H127      1.0  0.0844036411336333  0.20735320071054267  0.8125449360933814  1.0000
  H   H128      1.0  0.9155973672695269  0.20735386494956734  0.6874533468873099  1.0000
  H   H129      1.0  0.7392961639051022  0.08748370582924278  0.16384798129302422  1.0000
  H   H130      1.0  0.2607048897418665  0.08748212920816194  0.33615166095662374  1.0000
  H   H131      1.0  0.7607039047601206  0.41251699773062694  0.163848490916692  1.0000
  H   H132      1.0  0.23929642312806015  0.4125176880056642  0.3361525854047828  1.0000
  H   H133      1.0  0.2607037473047953  0.9125164860007611  0.8361517889037062  1.0000
  H   H134      1.0  0.7392950214692178  0.9125163877414408  0.6638484980792755  1.0000
  H   H135      1.0  0.23929600644903104  0.5874826358048607  0.836152056956202  1.0000
  H   H136      1.0  0.7607061484631218  0.5874836204081217  0.6638475736273153  1.0000
  H   H137      1.0  0.08223046763595222  0.9174501400144732  0.912850161822341  1.0000
  H   H138      1.0  0.9177716156017368  0.9174505670189103  0.587149339739476  1.0000
  H   H139      1.0  0.41776901416259443  0.5825492919664298  0.9128509986355342  1.0000
  H   H140      1.0  0.582229826284646  0.5825502475418957  0.5871494173682664  1.0000
  H   H141      1.0  0.9177707737641114  0.08254949351934465  0.0871507748876041  1.0000
  H   H142      1.0  0.08223029090027721  0.08254850822616076  0.4128484862675991  1.0000
  H   H143      1.0  0.5822295668549488  0.4174503415701094  0.08714954923816262  1.0000
  H   H144      1.0  0.4177694198288293  0.4174505025818858  0.4128503528284284  1.0000
  H   H145      1.0  0.7642903924465616  0.02409372625983509  0.9945460615328373  1.0000
  H   H146      1.0  0.23570969495567343  0.024093258811490194  0.5054540644131934  1.0000
  H   H147      1.0  0.7357120515301859  0.4759076397713783  0.9945461131724969  1.0000
  H   H148      1.0  0.26428902231901935  0.4759082438880424  0.505455247872277  1.0000
  H   H149      1.0  0.2357108489548878  0.9759059072752335  0.005454097501385001  1.0000
  H   H150      1.0  0.7642882209668188  0.9759069330200845  0.49454570578474505  1.0000
  H   H151      1.0  0.2642898549659519  0.5240942269374497  0.0054532681838424  1.0000
  H   H152      1.0  0.7357102237898943  0.5240947394068768  0.4945456888362544  1.0000
  H   H153      1.0  0.6643713554163071  0.03087912131287139  0.070270351098408  1.0000
  H   H154      1.0  0.33562849442682813  0.03087824052904149  0.4297301576639398  1.0000
  H   H155      1.0  0.8356290450512847  0.4691224432608932  0.07027106976716621  1.0000
  H   H156      1.0  0.16436783096284557  0.4691235071370625  0.4297314730694239  1.0000
  H   H157      1.0  0.33562988598519883  0.9691210705160812  0.9297294190975125  1.0000
  H   H158      1.0  0.6643700865887753  0.969122509593376  0.5702707790467443  1.0000
  H   H159      1.0  0.1643708661553731  0.5308794234476224  0.9297294781039726  1.0000
  H   H160      1.0  0.8356294198573482  0.5308800344520533  0.5702698524777362  1.0000
  H   H161      1.0  0.025037832182583496  0.8980844440112532  0.015170178123206304  1.0000
  H   H162      1.0  0.9749614115069606  0.8980840527333736  0.48482858078548235  1.0000
  H   H163      1.0  0.47496150709178414  0.6019167753552138  0.015170915112925301  1.0000
  H   H164      1.0  0.5250383978949102  0.6019170928324367  0.48482947512204094  1.0000
  H   H165      1.0  0.9749607488337804  0.10191686440568046  0.9848299809113145  1.0000
  H   H166      1.0  0.0250391648043262  0.10191669739502628  0.5151676898696422  1.0000
  H   H167      1.0  0.5250377390196945  0.39808453306056885  0.9848296327590519  1.0000
  H   H168      1.0  0.47496217841037247  0.398085332171952  0.515169128558945  1.0000
  C   C1        1.0  0.8755626587653966  0.9497205096613822  0.9317347322921635  1.0000
  C   C2        1.0  0.12443868732413679  0.9497172228375628  0.5682654963027431  1.0000
  C   C3        1.0  0.6244388914941155  0.5502825399345638  0.9317344204869544  1.0000
  C   C4        1.0  0.3755613511981934  0.5502777409333959  0.5682660461608294  1.0000
  C   C5        1.0  0.12443858263991811  0.05027689070192309  0.06826464906808381  1.0000
  C   C6        1.0  0.8755625540840981  0.05027571117781088  0.4317350515745988  1.0000
  C   C7        1.0  0.3755610197128051  0.44972155994948787  0.06826457203097651  1.0000
  C   C8        1.0  0.624437894915836  0.4497218926032502  0.4317341128746009  1.0000
  C   C9        1.0  0.6260144634162399  0.013873941346183496  0.16665823905020727  1.0000
  C   C10       1.0  0.37398409421170703  0.013870520489689392  0.3333403522139947  1.0000
  C   C11       1.0  0.8739862603801214  0.4861273114157212  0.166658495629342  1.0000
  C   C12       1.0  0.12601323805206022  0.48612763094072864  0.3333420763290249  1.0000
  C   C13       1.0  0.3739861128895329  0.986126808777186  0.8333411423078162  1.0000
  C   C14       1.0  0.6260144868085932  0.986129113049365  0.6666586403082492  1.0000
  C   C15       1.0  0.1260129857339081  0.5138723221209174  0.8333416634060884  1.0000
  C   C16       1.0  0.8739866731565299  0.5138731191819018  0.6666580827051265  1.0000
  C   C17       1.0  0.3803251396799184  0.2087228964126026  0.19818520920269123  1.0000
  C   C18       1.0  0.6196763083495397  0.2087214236817231  0.30181618695984014  1.0000
  C   C19       1.0  0.11967333690682841  0.29127569224046806  0.19818685798320257  1.0000
  C   C20       1.0  0.880326596598465  0.29127715867559795  0.30181479745519374  1.0000
  C   C21       1.0  0.6196754366243482  0.7912767371217341  0.801815727507659  1.0000
  C   C22       1.0  0.38032426795597024  0.791277093266103  0.6981847497513842  1.0000
  C   C23       1.0  0.8803252441065724  0.7087239412922911  0.8018160229176774  1.0000
  C   C24       1.0  0.11967530989671359  0.7087224748570619  0.698186528092215  1.0000
  C   C25       1.0  0.534224582425537  0.008811955229454297  0.1749833173818018  1.0000
  C   C26       1.0  0.4657753166935237  0.008809533293145896  0.32501644833881477  1.0000
  C   C27       1.0  0.9657747816606773  0.49118871230841415  0.17498384342717094  1.0000
  C   C28       1.0  0.0342240403747525  0.4911886450656411  0.32501672058840825  1.0000
  C   C29       1.0  0.4657746636886273  0.9911887948949595  0.8250160639770316  1.0000
  C   C30       1.0  0.5342252596161219  0.9911889836584534  0.6749821553452336  1.0000
  C   C31       1.0  0.034223799356929895  0.5088114795220091  0.8250163156082237  1.0000
  C   C32       1.0  0.9657752057399734  0.5088109884716303  0.6749830496091606  1.0000
  C   C33       1.0  0.4833413433935405  0.07268631458945408  0.18245753954467867  1.0000
  C   C34       1.0  0.5166604083879349  0.07268383667289408  0.3175436812801351  1.0000
  C   C35       1.0  0.016657188957395905  0.4273151164092324  0.18245871104223  1.0000
  C   C36       1.0  0.9833411106011526  0.42731469480613515  0.31754311973250543  1.0000
  C   C37       1.0  0.5166579027206879  0.927314993828844  0.8175414529758458  1.0000
  C   C38       1.0  0.4833408330120649  0.9273152385670396  0.682457644268112  1.0000
  C   C39       1.0  0.983341392059515  0.5726850754205586  0.8175418368310263  1.0000
  C   C40       1.0  0.0166594657024888  0.5726854970214531  0.6824578169774116  1.0000
  C   C41       1.0  0.4987081424784918  0.28111447571432535  0.1862741991234032  1.0000
  C   C42       1.0  0.5012924788162678  0.28111259264625227  0.3137266945887661  1.0000
  C   C43       1.0  0.0012890461484644997  0.21888526805766864  0.18627610522837304  1.0000
  C   C44       1.0  0.9987103838986684  0.2188859511797076  0.3137260526603144  1.0000
  C   C45       1.0  0.5012904385391153  0.7188857161160982  0.8137259599119917  1.0000
  C   C46       1.0  0.49870876258973595  0.7188848077176855  0.6862722979336198  1.0000
  C   C47       1.0  0.9987101999601151  0.7811149237678305  0.8137267756716611  1.0000
  C   C48       1.0  0.0012915225944424998  0.7811136823510691  0.686276439400679  1.0000
  C   C49       1.0  0.578667922067318  0.6340559654302849  0.35791196121726193  1.0000
  C   C50       1.0  0.4213372319222373  0.6340581133225311  0.1420879897350886  1.0000
  C   C51       1.0  0.9213296769712969  0.8659427992444573  0.35791196010292486  1.0000
  C   C52       1.0  0.07866232243026161  0.8659415788818943  0.1420884046062341  1.0000
  C   C53       1.0  0.42132799856969433  0.3659431098169818  0.642087420144897  1.0000
  C   C54       1.0  0.5786686651492089  0.3659420785021297  0.8579121692958653  1.0000
  C   C55       1.0  0.0786708993350942  0.1340573925856532  0.642087421255532  1.0000
  C   C56       1.0  0.9213329331095039  0.13405693807074928  0.8579121432703547  1.0000
  C   C57       1.0  0.5240497854109378  0.14291622574329205  0.18157713080361054  1.0000
  C   C58       1.0  0.4759498142724823  0.14291380911021886  0.3184224244502616  1.0000
  C   C59       1.0  0.9759488901956955  0.35708497875472023  0.181579410315635  1.0000
  C   C60       1.0  0.024051561466429006  0.3570849488745153  0.3184209753271361  1.0000
  C   C61       1.0  0.47594879560686826  0.8570856409687831  0.8184218617168783  1.0000
  C   C62       1.0  0.5240507620331557  0.8570858244253752  0.6815777345843587  1.0000
  C   C63       1.0  0.0240510210113172  0.6429140964850002  0.8184226929091454  1.0000
  C   C64       1.0  0.975949679937152  0.6429152429563272  0.6815776283551929  1.0000
  C   C65       1.0  0.661504955874591  0.8860044271641808  0.1899240355013347  1.0000
  C   C66       1.0  0.33849764026421525  0.8860033706458165  0.310076686553856  1.0000
  C   C67       1.0  0.8384992246695618  0.6139959975289881  0.18992375268095435  1.0000
  C   C68       1.0  0.161500653345243  0.6139963364138763  0.3100770074344085  1.0000
  C   C69       1.0  0.33849828081432776  0.11399576466320124  0.8100757346933707  1.0000
  C   C70       1.0  0.6614996105624088  0.11399626289239959  0.6899234724827821  1.0000
  C   C71       1.0  0.1615060073080201  0.38600307771031334  0.8100760175134171  1.0000
  C   C72       1.0  0.8384999229597769  0.3860038554149766  0.6899231515997785  1.0000
  C   C73       1.0  0.6024598796133631  0.6313226773927167  0.2747698593954766  1.0000
  C   C74       1.0  0.3975466106717249  0.6313240355070774  0.22523009584638495  1.0000
  C   C75       1.0  0.8975380142255035  0.868677472830839  0.2747698828724694  1.0000
  C   C76       1.0  0.10245331397308628  0.8686759460265278  0.2252312552211961  1.0000
  C   C77       1.0  0.39753670611883507  0.3686769561472828  0.7252295219658437  1.0000
  C   C78       1.0  0.6024599514942109  0.3686767146096911  0.774770452021592  1.0000
  C   C79       1.0  0.1024605667935461  0.13132327729472584  0.7252291096489004  1.0000
  C   C80       1.0  0.8975419415639934  0.13132312921749184  0.7747704591685435  1.0000
  C   C81       1.0  0.6588624348473646  0.8336402895503311  0.2767091896593358  1.0000
  C   C82       1.0  0.3411402782109577  0.8336417427904335  0.22329122573766824  1.0000
  C   C83       1.0  0.8411407728834847  0.6663587378094744  0.2767088214510381  1.0000
  C   C84       1.0  0.1588569929249601  0.6663582450170507  0.22329263416246906  1.0000
  C   C85       1.0  0.3411394716518216  0.16635822739833367  0.7232905805374942  1.0000
  C   C86       1.0  0.6588583028079642  0.16635789074736343  0.7767085444603056  1.0000
  C   C87       1.0  0.15886512418921236  0.3336403374286688  0.7232913375807971  1.0000
  C   C88       1.0  0.8411415880925118  0.3336408302256045  0.7767083025495298  1.0000
  C   C89       1.0  0.6306718910312414  0.8178960564038601  0.16990751215438857  1.0000
  C   C90       1.0  0.36933085718525405  0.8178943282689131  0.33009292795451733  1.0000
  C   C91       1.0  0.8693323604868013  0.6821038747485486  0.16990747385121813  1.0000
  C   C92       1.0  0.13066670035639308  0.682104197452304  0.33009356821214925  1.0000
  C   C93       1.0  0.36933068056319485  0.18210357713142855  0.8300918692032939  1.0000
  C   C94       1.0  0.6306683889296066  0.18210642185612602  0.6699060645664474  1.0000
  C   C95       1.0  0.1306715412964863  0.31789575878317317  0.8300934628571144  1.0000
  C   C96       1.0  0.8693318806618395  0.31789543608486764  0.6699065908236861  1.0000
  C   C97       1.0  0.5950890826113095  0.7065285820720815  0.3432134343234878  1.0000
  C   C98       1.0  0.4049172397495228  0.7065301499889072  0.156786402888109  1.0000
  C   C99       1.0  0.9049105638306116  0.7934713467367015  0.3432135668819996  1.0000
  C   C100      1.0  0.09508093229229793  0.7934706112533474  0.1567873004036358  1.0000
  C   C101      1.0  0.4049101635067274  0.2934699348805622  0.6567851693613707  1.0000
  C   C102      1.0  0.5950886573218596  0.2934694835418624  0.843214144981147  1.0000
  C   C103      1.0  0.09509001247453602  0.20652996167991933  0.6567858144755905  1.0000
  C   C104      1.0  0.904914323245599  0.20652958057906542  0.8432132474716456  1.0000
  C   C105      1.0  0.6750062970959119  0.8935893019104383  0.24358131341031009  1.0000
  C   C106      1.0  0.32499561701044394  0.8935901151219663  0.25641861906419194  1.0000
  C   C107      1.0  0.824998358289058  0.6064103909091398  0.24358105888410367  1.0000
  C   C108      1.0  0.17500153666308904  0.6064103238124684  0.2564201019744914  1.0000
  C   C109      1.0  0.3249976046900613  0.10640977332991497  0.7564184567848714  1.0000
  C   C110      1.0  0.6750009687217472  0.10640951841802597  0.7435807622971283  1.0000
  C   C111      1.0  0.1750075387830137  0.39358924262226924  0.7564191001472906  1.0000
  C   C112      1.0  0.8249983745461267  0.3935898680169031  0.7435800570601006  1.0000
  C   C113      1.0  0.6275943970063977  0.7659338903741142  0.25663239639222013  1.0000
  C   C114      1.0  0.3724111276153367  0.7659352294092583  0.24336734758771436  1.0000
  C   C115      1.0  0.8724075517178564  0.7340663185200852  0.2566326616413193  1.0000
  C   C116      1.0  0.12758806762379044  0.7340646934517064  0.2433682988743868  1.0000
  C   C117      1.0  0.3724055142040612  0.23406518486874714  0.7433677626432458  1.0000
  C   C118      1.0  0.6275921090742074  0.2340644041248722  0.7566324226074315  1.0000
  C   C119      1.0  0.12759568497043722  0.2659344316005558  0.7433671085529527  1.0000
  C   C120      1.0  0.8724105133930636  0.2659349400842003  0.7566326378371714  1.0000
  C   C121      1.0  0.7300265251255381  0.9422229539870981  0.11274546657308092  1.0000
  C   C122      1.0  0.2699752803895734  0.9422206391517063  0.38725594492841253  1.0000
  C   C123      1.0  0.7699759337861637  0.5577805118460117  0.1127441886505451  1.0000
  C   C124      1.0  0.2300214093682698  0.5577799348228181  0.38725627085533904  1.0000
  C   C125      1.0  0.26997538136853183  0.05777891271984  0.88725508129685  1.0000
  C   C126      1.0  0.7300226355329188  0.057779552679868076  0.6127438252695258  1.0000
  C   C127      1.0  0.2300259727087237  0.4422224714493266  0.8872551927049132  1.0000
  C   C128      1.0  0.7699758414558604  0.44222193188841874  0.6127438881795513  1.0000
  C   C129      1.0  0.8536553442683399  0.8839482804729925  0.0670702088564212  1.0000
  C   C130      1.0  0.14634526117625057  0.8839465709259142  0.4329297387517386  1.0000
  C   C131      1.0  0.6463446162111881  0.6160547748245121  0.0670705449087379  1.0000
  C   C132      1.0  0.35365392701901743  0.6160521804137173  0.4329298231407749  1.0000
  C   C133      1.0  0.14634390184395582  0.11605414453119067  0.9329291725010908  1.0000
  C   C134      1.0  0.853654650033029  0.11605417919734858  0.5670700314445514  1.0000
  C   C135      1.0  0.35365462989972946  0.38394765017840615  0.9329296141244967  1.0000
  C   C136      1.0  0.6463453190931432  0.3839491280026975  0.567070335893348  1.0000
  C   C137      1.0  0.7987935042764108  0.8889634019082846  0.11040349617830711  1.0000
  C   C138      1.0  0.20120775506649843  0.8889611878267512  0.3895964435589861  1.0000
  C   C139      1.0  0.7012096280342631  0.6110383966182338  0.1104037735009271  1.0000
  C   C140      1.0  0.29878759620044804  0.611038820283134  0.3895973800955873  1.0000
  C   C141      1.0  0.20120906731477115  0.11103790650550846  0.8895966628537908  1.0000
  C   C142      1.0  0.7987901608584879  0.11103677083180226  0.6104033266407001  1.0000
  C   C143      1.0  0.29879294355622926  0.3889629117949338  0.8895967743690394  1.0000
  C   C144      1.0  0.7012083244313844  0.38896304642852175  0.6104031677779744  1.0000
  C   C145      1.0  0.842252961461284  0.9328258151103124  0.0252051712354131  1.0000
  C   C146      1.0  0.15774753484575402  0.9328256270495671  0.4747943108240237  1.0000
  C   C147      1.0  0.6577478125584905  0.5671773756200337  0.02520479247920091  1.0000
  C   C148      1.0  0.3422528350962537  0.5671752220305563  0.47479487460248754  1.0000
  C   C149      1.0  0.1577462846554454  0.06717326013496455  0.9747938212868661  1.0000
  C   C150      1.0  0.8422537065565123  0.0671751230739019  0.5252046816957332  1.0000
  C   C151      1.0  0.34225276374299096  0.4328278408500025  0.9747942000374509  1.0000
  C   C152      1.0  0.6577477412055829  0.4328272029706851  0.5252056732678058  1.0000
  C   C153      1.0  0.356824555324593  0.2824109187945395  0.20210892851771695  1.0000
  C   C154      1.0  0.6431747328826701  0.28240942173867006  0.2978923519981507  1.0000
  C   C155      1.0  0.14317191206148291  0.21758877375398802  0.20211027558013941  1.0000
  C   C156      1.0  0.8568275208809198  0.21758973160505946  0.2978914955052261  1.0000
  C   C157      1.0  0.643174025693078  0.7175898313297747  0.797890841679376  1.0000
  C   C158      1.0  0.3568265085200225  0.717589095209888  0.7021078070369456  1.0000
  C   C159      1.0  0.8568273340491076  0.7824108597795101  0.7978918276446052  1.0000
  C   C160      1.0  0.14317438561225518  0.7824104602196014  0.702110607717465  1.0000
  C   C161      1.0  0.6164256127427452  0.14820040954689515  0.17483928809844682  1.0000
  C   C162      1.0  0.3835746402395159  0.14819755834239598  0.32515948118650334  1.0000
  C   C163      1.0  0.8835730867571739  0.3518008167501704  0.1748401326919264  1.0000
  C   C164      1.0  0.11642804179916062  0.3518017361373892  0.3251598724049316  1.0000
  C   C165      1.0  0.3835742984659801  0.8518014571635031  0.8251600932591074  1.0000
  C   C166      1.0  0.6164259360694401  0.8518009586085779  0.6748395113354064  1.0000
  C   C167      1.0  0.11642615935479482  0.6481988167845855  0.8251611928570954  1.0000
  C   C168      1.0  0.8835745297933997  0.6481995722776613  0.6748395089514433  1.0000
  C   C169      1.0  0.6128400148787206  0.7585433024897623  0.2030851602065624  1.0000
  C   C170      1.0  0.3871635309591285  0.7585427701798223  0.2969149842129043  1.0000
  C   C171      1.0  0.8871614586159282  0.741457637923318  0.20308461826954274  1.0000
  C   C172      1.0  0.11283613950898543  0.7414569794555274  0.2969159418061977  1.0000
  C   C173      1.0  0.387159896331113  0.24145633104635777  0.7969149988284698  1.0000
  C   C174      1.0  0.6128383755402567  0.24145742165050157  0.7030836194690266  1.0000
  C   C175      1.0  0.11284111297525358  0.258543670490475  0.7969155407625552  1.0000
  C   C176      1.0  0.8871624415092468  0.258542654081637  0.7030842172296377  1.0000
  C   C177      1.0  0.6671565445522988  0.08409268322978387  0.1676718592849795  1.0000
  C   C178      1.0  0.33284318647622513  0.08409100534102977  0.3323270106117918  1.0000
  C   C179      1.0  0.832843510554554  0.4159080079600982  0.16767227601268084  1.0000
  C   C180      1.0  0.16715747485695692  0.4159088242439422  0.3323291838242143  1.0000
  C   C181      1.0  0.3328440317534743  0.9159080668935783  0.832327522073044  1.0000
  C   C182      1.0  0.667156059639254  0.9159091864907574  0.6676719819096136  1.0000
  C   C183      1.0  0.167155735560101  0.5840910672832962  0.8323278830231902  1.0000
  C   C184      1.0  0.8328450967328463  0.5840924841685932  0.6676717528836065  1.0000
  C   C185      1.0  0.016485710949716303  0.9234099450886574  0.9296740448660827  1.0000
  C   C186      1.0  0.9835150287902081  0.9234086480721898  0.5703258361822847  1.0000
  C   C187      1.0  0.483515041385388  0.5765916656401728  0.9296744223814529  1.0000
  C   C188      1.0  0.5164858076561103  0.576589987740789  0.5703252252975305  1.0000
  C   C189      1.0  0.983514865357101  0.07658801356654267  0.07032650300771341  1.0000
  C   C190      1.0  0.0164862126169822  0.07658707741134657  0.4296735451792771  1.0000
  C   C191      1.0  0.5164842047261545  0.42341020106949384  0.07032573665222941  1.0000
  C   C192      1.0  0.48351476865022397  0.4234096457954378  0.4296745448992284  1.0000
  C   C193      1.0  0.7737127815467275  0.9856510158450856  0.026936666388579108  1.0000
  C   C194      1.0  0.2262889269994801  0.9856501671197223  0.4730638992789055  1.0000
  C   C195      1.0  0.7262906467174942  0.5143521692824605  0.026935898493739802  1.0000
  C   C196      1.0  0.27370945378788036  0.5143523624386788  0.47306501800535733  1.0000
  C   C197      1.0  0.22628912495051884  0.014348617689463996  0.9730634926452385  1.0000
  C   C198      1.0  0.7737096540190154  0.014351699592985795  0.5269347044037218  1.0000
  C   C199      1.0  0.2737119248732681  0.48565137230623606  0.9730630940230187  1.0000
  C   C200      1.0  0.7262877970309987  0.4856517374430708  0.5269366963792308  1.0000
  C   C201      1.0  0.7176677380811894  0.9897700784138334  0.069727915150871  1.0000
  C   C202      1.0  0.282333961267618  0.989768721536556  0.43027303289031255  1.0000
  C   C203      1.0  0.7823348733607957  0.5102335265803715  0.0697263080090664  1.0000
  C   C204      1.0  0.21766390615029957  0.510232829862346  0.4302746149554439  1.0000
  C   C205      1.0  0.2823341684114952  0.010231788291847  0.9302734103947758  1.0000
  C   C206      1.0  0.7176646197508773  0.010233145176151499  0.5697255707923219  1.0000
  C   C207      1.0  0.21766636803904052  0.48977001501000905  0.9302722956706405  1.0000
  C   C208      1.0  0.7823340097669417  0.4897695951397337  0.5697267105921925  1.0000
  C   C209      1.0  0.9891929017744588  0.9129718048225186  0.9801905001221771  1.0000
  C   C210      1.0  0.010807196176578802  0.9129710869265111  0.519809008470169  1.0000
  C   C211      1.0  0.5108078115773083  0.5870294131397669  0.9801910462618579  1.0000
  C   C212      1.0  0.48919301415733685  0.5870284999474291  0.5198085850352498  1.0000
  C   C213      1.0  0.010807009436064201  0.08702782871423405  0.019809270074986802  1.0000
  C   C214      1.0  0.9891927150385129  0.08702631343910378  0.48018959521515825  1.0000
  C   C215      1.0  0.4891920996300386  0.4129724535693738  0.0198091127714193  1.0000
  C   C216      1.0  0.5108082272468693  0.4129711335901616  0.4801900186475196  1.0000
  N   N1        1.0  0.6098729290231758  0.7044484560316772  0.2898749819740303  1.0000
  N   N2        1.0  0.3901327328873308  0.7044498746898211  0.21012446966482662  1.0000
  N   N3        1.0  0.8901262414473197  0.7955516453253535  0.28987551805282413  1.0000
  N   N4        1.0  0.10986724531814218  0.7955501557098824  0.21012573480517466  1.0000
  N   N5        1.0  0.3901249869013128  0.2955511775078961  0.7101240105486256  1.0000
  N   N6        1.0  0.6098724990890008  0.2955503171359906  0.7898753005286708  1.0000
  N   N7        1.0  0.10987366976202402  0.20444966309178614  0.7101238633051637  1.0000
  N   N8        1.0  0.8901300055077215  0.20444891953381727  0.7898752019076343  1.0000
  N   N9        1.0  0.6760938217443382  0.9480956119726397  0.15679499200157923  1.0000
  N   N10       1.0  0.3239073055627913  0.9480933546783915  0.3432060214457097  1.0000
  N   N11       1.0  0.8239091460728645  0.551906036478158  0.15679560201448345  1.0000
  N   N12       1.0  0.17609153567519803  0.5519062452094442  0.34320564438404233  1.0000
  N   N13       1.0  0.3239067545594382  0.05190569644271649  0.8432051670317335  1.0000
  N   N14       1.0  0.6760899452625181  0.05190683715245108  0.6567945264283567  1.0000
  N   N15       1.0  0.17609209532589176  0.44809415534827907  0.8432057235328828  1.0000
  N   N16       1.0  0.823909705725754  0.4480950632066507  0.6567937369731356  1.0000
  N   N17       1.0  0.4307858330558645  0.3265858265072126  0.1946163321797272  1.0000
  N   N18       1.0  0.5692140216121687  0.32658386342977497  0.30538449016899  1.0000
  N   N19       1.0  0.069211325991958  0.17341389027823334  0.19461822719430444  1.0000
  N   N20       1.0  0.9307882055861042  0.1734147073832516  0.30538400205823996  1.0000
  N   N21       1.0  0.5692120828660024  0.6734149236176132  0.8053834380177706  1.0000
  N   N22       1.0  0.4307858896016086  0.673414095228466  0.6946145023537653  1.0000
  N   N23       1.0  0.9307879201179433  0.8265857432546394  0.8053842648683018  1.0000
  N   N24       1.0  0.0692143660028108  0.8265849261469993  0.6946184900023484  1.0000
  N   N25       1.0  0.9450466075336407  0.9463143590098325  0.9000626823414282  1.0000
  N   N26       1.0  0.0549540810641531  0.9463110791836795  0.5999383292753038  1.0000
  N   N27       1.0  0.5549543899338191  0.5536871181655555  0.900062060704393  1.0000
  N   N28       1.0  0.44504584515705403  0.5536843404231034  0.5999368452471288  1.0000
  N   N29       1.0  0.0549533036747505  0.053684716231145985  0.0999386432076221  1.0000
  N   N30       1.0  0.9450464952477232  0.05368297141935589  0.4000618297637006  1.0000
  N   N31       1.0  0.4450448561791021  0.44631474854536884  0.0999373206535665  1.0000
  N   N32       1.0  0.5549547311505878  0.4463147348204969  0.40006253611220904  1.0000
  N   N33       1.0  0.47123909883721643  0.20808806155812215  0.1881791897917324  1.0000
  N   N34       1.0  0.5287603553248204  0.208085583089307  0.3118214296934099  1.0000
  N   N35       1.0  0.028758083035441504  0.2919122343454035  0.18818055910265494  1.0000
  N   N36       1.0  0.9712411839555699  0.291912408608674  0.3118203176624235  1.0000
  N   N37       1.0  0.5287594821790762  0.7919126885649276  0.8118213580810903  1.0000
  N   N38       1.0  0.47124022098275725  0.7919129338604022  0.6881783405042301  1.0000
  N   N39       1.0  0.9712398328822262  0.7080879574817727  0.8118219329603209  1.0000
  N   N40       1.0  0.0287607225409872  0.7080872249252435  0.6881802302092552  1.0000
  N   N41       1.0  0.8991641826139086  0.9301633983343573  0.9811906322603933  1.0000
  N   N42       1.0  0.10083654204727571  0.9301614252657016  0.518809238189462  1.0000
  N   N43       1.0  0.6008378573835884  0.5698394912732636  0.9811899295748034  1.0000
  N   N44       1.0  0.3991650020241265  0.5698364899608064  0.5188093398631822  1.0000
  N   N45       1.0  0.1008357285964863  0.06983511861462688  0.018809915613374507  1.0000
  N   N46       1.0  0.8991640342648635  0.06983485851287698  0.48118936549634134  1.0000
  N   N47       1.0  0.3991640491113699  0.4301640503159588  0.018809062942359806  1.0000
  N   N48       1.0  0.600836904471258  0.43016481845351234  0.4811908191693207  1.0000
  N   N49       1.0  0.583410182438044  0.588207314098909  0.3149858496018681  1.0000
  N   N50       1.0  0.41659440882995113  0.5882087723037442  0.18501417330750064  1.0000
  N   N51       1.0  0.9165875688055466  0.9117921477339547  0.31498578228763563  1.0000
  N   N52       1.0  0.08340499331501408  0.911791897621711  0.18501489930106638  1.0000
  N   N53       1.0  0.41658573819835004  0.41179231944161626  0.6850135317598572  1.0000
  N   N54       1.0  0.5834108231444403  0.41179253610795286  0.8149859857229842  1.0000
  N   N55       1.0  0.08341167730986142  0.08820748580394878  0.6850135990720718  1.0000
  N   N56       1.0  0.9165895971257001  0.08820829420996998  0.814986426250343  1.0000
  Cl  Cl1       1.0  0.2495058788305755  0.4575392667524906  0.17518416725185662  1.0000
  Cl  Cl2       1.0  0.7504936834455692  0.45753472207832835  0.3248133388742432  1.0000
  Cl  Cl3       1.0  0.25049201421575157  0.042457163132908676  0.17518760307680745  1.0000
  Cl  Cl4       1.0  0.749507144676997  0.04245541148193148  0.3248148317050551  1.0000
  Cl  Cl5       1.0  0.7504927021821146  0.5424659497178651  0.8248156029417334  1.0000
  Cl  Cl6       1.0  0.24950622777749487  0.54245430388719  0.6751860424933798  1.0000
  Cl  Cl7       1.0  0.7495065668006973  0.9575391206396869  0.8248156666645559  1.0000
  Cl  Cl8       1.0  0.2504921014422195  0.9575414305903251  0.6751841608189794  1.0000
  Cl  Cl9       1.0  0.40049570581062005  0.4651920366634881  0.2958101291105067  1.0000
  Cl  Cl10      1.0  0.5995031742682856  0.4651931446954618  0.20419164221759445  1.0000
  Cl  Cl11      1.0  0.09950042934181623  0.03480902765296178  0.29580598348047  1.0000
  Cl  Cl12      1.0  0.9004907654860971  0.03480910324012139  0.20419101957790536  1.0000
  Cl  Cl13      1.0  0.5995002148176098  0.5348142963954741  0.704189641083822  1.0000
  Cl  Cl14      1.0  0.4004920812711176  0.5348081637259766  0.7958073503053527  1.0000
  Cl  Cl15      1.0  0.9004948262083872  0.9651844646647871  0.7041918425350248  1.0000
  Cl  Cl16      1.0  0.09950315987305909  0.9651832724915362  0.795807195277135  1.0000
